@<TRIPOS>MOLECULE
SAL
 16 16 0 0 0
SMALL
GASTEIGER

@<TRIPOS>ATOM
      1 C           0.9727   -0.0708   -0.0492 C.2     1  UNL1        0.3404
      2 O           0.2959    0.9409   -0.0622 O.2     1  UNL1       -0.2450
      3 O           0.3916   -1.2889   -0.0391 O.3     1  UNL1       -0.4770
      4 C           2.4544   -0.1344   -0.0360 C.ar    1  UNL1        0.1001
      5 C           3.1830   -1.3317   -0.0201 C.ar    1  UNL1        0.1308
      6 C           4.5773   -1.3107    0.0055 C.ar    1  UNL1       -0.0194
      7 C           5.2587   -0.0937    0.0096 C.ar    1  UNL1       -0.0583
      8 C           4.5462    1.1042   -0.0130 C.ar    1  UNL1       -0.0608
      9 C           3.1493    1.0852   -0.0347 C.ar    1  UNL1       -0.0442
     10 O           2.6068   -2.5732   -0.0295 O.3     1  UNL1       -0.5059
     11 H          -0.5685   -1.0742   -0.0366 H       1  UNL1        0.2954
     12 H           5.1316   -2.2455    0.0222 H       1  UNL1        0.0654
     13 H           6.3457   -0.0820    0.0299 H       1  UNL1        0.0619
     14 H           5.0775    2.0530   -0.0124 H       1  UNL1        0.0618
     15 H           2.6048    2.0279   -0.0493 H       1  UNL1        0.0627
     16 H           1.6350   -2.4450   -0.0546 H       1  UNL1        0.2922
@<TRIPOS>BOND
     1     1     2    2
     2     1     3    1
     3     1     4    1
     4     3    11    1
     5     4     5   ar
     6     4     9   ar
     7     5     6   ar
     8     5    10    1
     9     6     7   ar
    10     6    12    1
    11     7     8   ar
    12     7    13    1
    13     8     9   ar
    14     8    14    1
    15     9    15    1
    16    10    16    1
