REMARK  3 active torsions:
REMARK  status: ('A' for Active; 'I' for Inactive)
REMARK    1  A    between atoms: C_1  and  O_3 
REMARK    2  A    between atoms: C_1  and  C_4 
REMARK    3  A    between atoms: C_5  and  O_10 
ROOT
ATOM      1  C   UNL d   1       2.454  -0.134  -0.036  0.00  0.00     0.070 A 
ATOM      2  C   UNL d   1       3.183  -1.332  -0.020  0.00  0.00     0.082 A 
ATOM      3  C   UNL d   1       4.577  -1.311   0.005  0.00  0.00     0.037 A 
ATOM      4  C   UNL d   1       5.259  -0.094   0.010  0.00  0.00     0.003 A 
ATOM      5  C   UNL d   1       4.546   1.104  -0.013  0.00  0.00     0.001 A 
ATOM      6  C   UNL d   1       3.149   1.085  -0.035  0.00  0.00     0.021 A 
ENDROOT
BRANCH   1   7
ATOM      7  C   UNL d   1       0.973  -0.071  -0.049  0.00  0.00     0.178 C 
ATOM      8  O   UNL d   1       0.296   0.941  -0.062  0.00  0.00    -0.646 OA
BRANCH   7   9
ATOM      9  O   UNL d   1       0.392  -1.289  -0.039  0.00  0.00    -0.773 OA
ATOM     10  H   UNL d   1      -0.569  -1.074  -0.037  0.00  0.00     0.167 HD
ENDBRANCH   7   9
ENDBRANCH   1   7
BRANCH   2  11
ATOM     11  O   UNL d   1       2.607  -2.573  -0.029  0.00  0.00    -0.360 OA
ATOM     12  H   UNL d   1       1.635  -2.445  -0.055  0.00  0.00     0.217 HD
ENDBRANCH   2  11
TORSDOF 3
