REMARK  2 active torsions:
REMARK  status: ('A' for Active; 'I' for Inactive)
REMARK    1  A    between atoms: C_1  and  O_3 
REMARK    2  A    between atoms: C_1  and  C_4 
ROOT
ATOM      1  C   UNL d   1       1.042   0.084   0.011  0.00  0.00     0.213 C 
ATOM      2  O   UNL d   1       0.393   0.437  -0.954  0.00  0.00    -0.644 OA
ENDROOT
BRANCH   1   3
ATOM      3  O   UNL d   1       0.479  -0.334   1.148  0.00  0.00    -0.771 OA
ATOM      4  H   UNL d   1      -0.487  -0.280   1.002  0.00  0.00     0.168 HD
ENDBRANCH   1   3
BRANCH   1   5
ATOM      5  C   UNL d   1       2.579   0.070   0.048  0.00  0.00     0.218 C 
ATOM      6  O   UNL d   1       3.186  -0.294   1.046  0.00  0.00    -0.286 OA
ATOM      7  C   UNL d   1       3.261   0.528  -1.208  0.00  0.00     0.103 C 
ENDBRANCH   1   5
TORSDOF 2
