@<TRIPOS>MOLECULE
PYR
 10 9 0 0 0
SMALL
GASTEIGER

@<TRIPOS>ATOM
      1 C           1.0424    0.0836    0.0107 C.2     1  UNL1        0.3723
      2 O           0.3933    0.4373   -0.9539 O.2     1  UNL1       -0.2419
      3 O           0.4787   -0.3335    1.1481 O.3     1  UNL1       -0.4751
      4 C           2.5785    0.0702    0.0475 C.2     1  UNL1        0.2360
      5 O           3.1860   -0.2945    1.0461 O.2     1  UNL1       -0.2854
      6 C           3.2608    0.5285   -1.2075 C.3     1  UNL1        0.0052
      7 H          -0.4869   -0.2799    1.0018 H       1  UNL1        0.2955
      8 H           2.9862   -0.1230   -2.0407 H       1  UNL1        0.0311
      9 H           2.9862    1.5636   -1.4248 H       1  UNL1        0.0311
     10 H           4.3448    0.4777   -1.0683 H       1  UNL1        0.0311
@<TRIPOS>BOND
     1     1     2    2
     2     1     3    1
     3     1     4    1
     4     3     7    1
     5     4     5    2
     6     4     6    1
     7     6     8    1
     8     6     9    1
     9     6    10    1
