REMARK  3 active torsions:
REMARK  status: ('A' for Active; 'I' for Inactive)
REMARK    1  A    between atoms: C_1  and  O_3 
REMARK    2  A    between atoms: C_1  and  C_4 
REMARK    3  A    between atoms: C_5  and  O_10 
ROOT
ATOM      1  C   UNL d   1       2.380  -0.037   0.004  0.00  0.00     0.070 A 
ATOM      2  C   UNL d   1       3.109  -1.235   0.021  0.00  0.00     0.082 A 
ATOM      3  C   UNL d   1       4.503  -1.216   0.048  0.00  0.00     0.037 A 
ATOM      4  C   UNL d   1       5.186   0.000   0.051  0.00  0.00     0.003 A 
ATOM      5  C   UNL d   1       4.475   1.199   0.026  0.00  0.00     0.001 A 
ATOM      6  C   UNL d   1       3.077   1.181   0.005  0.00  0.00     0.021 A 
ENDROOT
BRANCH   1   7
ATOM      7  C   UNL d   1       0.896   0.026  -0.007  0.00  0.00     0.178 C 
ATOM      8  O   UNL d   1       0.218   1.035  -0.020  0.00  0.00    -0.646 OA
BRANCH   7   9
ATOM      9  O   UNL d   1       0.320  -1.196   0.006  0.00  0.00    -0.773 OA
ATOM     10  H   UNL d   1      -0.642  -0.989   0.016  0.00  0.00     0.167 HD
ENDBRANCH   7   9
ENDBRANCH   1   7
BRANCH   2  11
ATOM     11  O   UNL d   1       2.534  -2.477   0.009  0.00  0.00    -0.360 OA
ATOM     12  H   UNL d   1       1.562  -2.349  -0.020  0.00  0.00     0.217 HD
ENDBRANCH   2  11
TORSDOF 3
