@<TRIPOS>MOLECULE
SAL
 16 16 0 0 0
SMALL
GASTEIGER

@<TRIPOS>ATOM
      1 C           0.8958    0.0258   -0.0073 C.2     1  UNL1        0.3404
      2 O           0.2176    1.0353   -0.0201 O.2     1  UNL1       -0.2450
      3 O           0.3200   -1.1960    0.0063 O.3     1  UNL1       -0.4770
      4 C           2.3800   -0.0373    0.0042 C.ar    1  UNL1        0.1001
      5 C           3.1087   -1.2351    0.0205 C.ar    1  UNL1        0.1308
      6 C           4.5029   -1.2157    0.0476 C.ar    1  UNL1       -0.0194
      7 C           5.1861    0.0002    0.0510 C.ar    1  UNL1       -0.0583
      8 C           4.4748    1.1986    0.0260 C.ar    1  UNL1       -0.0608
      9 C           3.0766    1.1813    0.0046 C.ar    1  UNL1       -0.0442
     10 O           2.5336   -2.4769    0.0086 O.3     1  UNL1       -0.5059
     11 H          -0.6420   -0.9894    0.0159 H       1  UNL1        0.2954
     12 H           5.0563   -2.1508    0.0675 H       1  UNL1        0.0654
     13 H           6.2735    0.0105    0.0724 H       1  UNL1        0.0619
     14 H           5.0080    2.1466    0.0252 H       1  UNL1        0.0618
     15 H           2.5345    2.1250   -0.0104 H       1  UNL1        0.0627
     16 H           1.5619   -2.3493   -0.0204 H       1  UNL1        0.2922
@<TRIPOS>BOND
     1     1     2    2
     2     1     3    1
     3     1     4    1
     4     3    11    1
     5     4     5   ar
     6     4     9   ar
     7     5     6   ar
     8     5    10    1
     9     6     7   ar
    10     6    12    1
    11     7     8   ar
    12     7    13    1
    13     8     9   ar
    14     8    14    1
    15     9    15    1
    16    10    16    1
