MODEL 1
REMARK VINA RESULT:      -7.6      0.000      0.000
REMARK  10 active torsions:
REMARK  status: ('A' for Active; 'I' for Inactive)
REMARK    1  A    between atoms: O_4  and  C_21 
REMARK    2  A    between atoms: O_4  and  C_26 
REMARK    3  A    between atoms: O_5  and  C_22 
REMARK    4  A    between atoms: O_8  and  N_12 
REMARK    5  A    between atoms: CA_16  and  N_11 
REMARK       I    between atoms: N_11  and  C_23 
REMARK    6  A    between atoms: N_14  and  C_29 
REMARK    7  A    between atoms: CA_18  and  C_22 
REMARK    8  A    between atoms: C_19  and  C_21 
REMARK    9  A    between atoms: C_23  and  C_24 
REMARK   10  A    between atoms: C_24  and  C_25 
ROOT
ATOM      1  S   UNL d   1      36.677 -11.942  11.971  0.00  0.00    -0.136 SA
ATOM      2  O   UNL d   1      37.590  -8.177  13.441  0.00  0.00    -0.271 OA
ATOM      3  N   UNL d   1      37.999  -9.650  11.686  0.00  0.00    -0.293 N 
ATOM      4  C   UNL d   1      38.262 -11.048  12.024  0.00  0.00     0.187 C 
ATOM      5  CA  UNL d   1      38.749 -10.501  13.415  0.00  0.00     0.211 C 
ATOM      6  C   UNL d   1      37.978  -9.217  12.978  0.00  0.00     0.251 C 
ATOM      7  CA  UNL d   1      37.272  -9.241  10.588  0.00  0.00     0.117 C 
ATOM      8  C   UNL d   1      36.531 -10.128   9.859  0.00  0.00    -0.013 C 
ATOM      9  C   UNL d   1      36.411 -11.598  10.200  0.00  0.00     0.115 C 
ENDROOT
BRANCH   5  10
ATOM     10  N   UNL d   1      38.440 -11.323  14.638  0.00  0.00    -0.339 N 
ATOM     11  C   UNL d   1      39.383 -12.291  14.980  0.00  0.00     0.275 C 
ATOM     12  O   UNL d   1      40.387 -12.444  14.284  0.00  0.00    -0.266 OA
ATOM     13  H   UNL d   1      37.714 -11.086  15.307  0.00  0.00     0.163 HD
BRANCH  11  14
ATOM     14  C   UNL d   1      39.209 -13.208  16.195  0.00  0.00     0.180 C 
ATOM     15  N   UNL d   1      39.683 -13.080  17.398  0.00  0.00    -0.126 NA
BRANCH  15  16
ATOM     16  O   UNL d   1      40.459 -11.951  17.663  0.00  0.00    -0.261 OA
ATOM     17  C   UNL d   1      41.829 -12.350  17.471  0.00  0.00     0.240 C 
ENDBRANCH  15  16
BRANCH  14  18
ATOM     18  C   UNL d   1      38.510 -14.482  15.966  0.00  0.00     0.102 A 
ATOM     19  N   UNL d   1      38.532 -15.508  16.903  0.00  0.00    -0.222 NA
ATOM     20  C   UNL d   1      37.721 -16.470  16.543  0.00  0.00     0.164 A 
ATOM     21  S   UNL d   1      36.955 -16.265  15.023  0.00  0.00    -0.062 SA
ATOM     22  C   UNL d   1      37.731 -14.750  14.851  0.00  0.00     0.087 A 
BRANCH  20  23
ATOM     23  N   UNL d   1      37.494 -17.552  17.301  0.00  0.00    -0.378 N 
ATOM     24  H   UNL d   1      37.563 -18.470  16.884  0.00  0.00     0.158 HD
ATOM     25  H   UNL d   1      37.782 -17.488  18.270  0.00  0.00     0.158 HD
ENDBRANCH  20  23
ENDBRANCH  14  18
ENDBRANCH  11  14
ENDBRANCH   5  10
BRANCH   7  26
ATOM     26  C   UNL d   1      37.429  -7.801  10.127  0.00  0.00     0.194 C 
ATOM     27  OXT UNL d   1      38.337  -7.427   9.396  0.00  0.00    -0.645 OA
BRANCH  26  28
ATOM     28  O   UNL d   1      36.589  -6.925  10.700  0.00  0.00    -0.772 OA
ATOM     29  H   UNL d   1      36.015  -7.289  11.407  0.00  0.00     0.167 HD
ENDBRANCH  26  28
ENDBRANCH   7  26
BRANCH   8  30
ATOM     30  C   UNL d   1      35.679  -9.734   8.662  0.00  0.00     0.216 C 
BRANCH  30  31
ATOM     31  O   UNL d   1      36.504  -9.557   7.499  0.00  0.00    -0.317 OA
BRANCH  31  32
ATOM     32  C   UNL d   1      35.858  -9.258   6.342  0.00  0.00     0.255 C 
ATOM     33  O   UNL d   1      34.944  -9.902   5.851  0.00  0.00    -0.266 OA
ATOM     34  C   UNL d   1      36.418  -7.999   5.752  0.00  0.00     0.126 C 
ENDBRANCH  31  32
ENDBRANCH  30  31
ENDBRANCH   8  30
TORSDOF 10
ENDMDL
MODEL 2
REMARK VINA RESULT:      -7.5      3.375      9.052
REMARK  10 active torsions:
REMARK  status: ('A' for Active; 'I' for Inactive)
REMARK    1  A    between atoms: O_4  and  C_21 
REMARK    2  A    between atoms: O_4  and  C_26 
REMARK    3  A    between atoms: O_5  and  C_22 
REMARK    4  A    between atoms: O_8  and  N_12 
REMARK    5  A    between atoms: CA_16  and  N_11 
REMARK       I    between atoms: N_11  and  C_23 
REMARK    6  A    between atoms: N_14  and  C_29 
REMARK    7  A    between atoms: CA_18  and  C_22 
REMARK    8  A    between atoms: C_19  and  C_21 
REMARK    9  A    between atoms: C_23  and  C_24 
REMARK   10  A    between atoms: C_24  and  C_25 
ROOT
ATOM      1  S   UNL d   1      41.279 -12.557  13.492  0.00  0.00    -0.136 SA
ATOM      2  O   UNL d   1      37.941 -12.557  15.947  0.00  0.00    -0.271 OA
ATOM      3  N   UNL d   1      39.729 -13.858  15.220  0.00  0.00    -0.293 N 
ATOM      4  C   UNL d   1      40.033 -13.850  13.790  0.00  0.00     0.187 C 
ATOM      5  CA  UNL d   1      38.521 -13.472  13.587  0.00  0.00     0.211 C 
ATOM      6  C   UNL d   1      38.591 -13.115  15.104  0.00  0.00     0.251 C 
ATOM      7  CA  UNL d   1      40.682 -13.894  16.215  0.00  0.00     0.117 C 
ATOM      8  C   UNL d   1      42.003 -13.679  15.939  0.00  0.00    -0.013 C 
ATOM      9  C   UNL d   1      42.526 -13.353  14.557  0.00  0.00     0.115 C 
ENDROOT
BRANCH   5  10
ATOM     10  N   UNL d   1      38.184 -12.503  12.484  0.00  0.00    -0.339 N 
ATOM     11  C   UNL d   1      36.837 -12.415  12.137  0.00  0.00     0.275 C 
ATOM     12  O   UNL d   1      36.006 -13.121  12.710  0.00  0.00    -0.266 OA
ATOM     13  H   UNL d   1      38.828 -11.800  12.136  0.00  0.00     0.163 HD
BRANCH  11  14
ATOM     14  C   UNL d   1      36.337 -11.478  11.032  0.00  0.00     0.180 C 
ATOM     15  N   UNL d   1      35.612 -11.749   9.989  0.00  0.00    -0.126 NA
BRANCH  15  16
ATOM     16  O   UNL d   1      35.200 -13.072   9.821  0.00  0.00    -0.261 OA
ATOM     17  C   UNL d   1      36.066 -13.638   8.820  0.00  0.00     0.240 C 
ENDBRANCH  15  16
BRANCH  14  18
ATOM     18  C   UNL d   1      36.831 -10.093  11.067  0.00  0.00     0.102 A 
ATOM     19  N   UNL d   1      37.482  -9.575  12.179  0.00  0.00    -0.222 NA
ATOM     20  C   UNL d   1      37.957  -8.385  11.915  0.00  0.00     0.164 A 
ATOM     21  S   UNL d   1      37.577  -7.761  10.364  0.00  0.00    -0.062 SA
ATOM     22  C   UNL d   1      36.753  -9.214   9.997  0.00  0.00     0.087 A 
BRANCH  20  23
ATOM     23  N   UNL d   1      38.692  -7.684  12.790  0.00  0.00    -0.378 N 
ATOM     24  H   UNL d   1      39.007  -6.756  12.540  0.00  0.00     0.158 HD
ATOM     25  H   UNL d   1      38.476  -7.824  13.770  0.00  0.00     0.158 HD
ENDBRANCH  20  23
ENDBRANCH  14  18
ENDBRANCH  11  14
ENDBRANCH   5  10
BRANCH   7  26
ATOM     26  C   UNL d   1      40.242 -14.318  17.607  0.00  0.00     0.194 C 
ATOM     27  OXT UNL d   1      39.817 -15.437  17.864  0.00  0.00    -0.645 OA
BRANCH  26  28
ATOM     28  O   UNL d   1      40.202 -13.331  18.517  0.00  0.00    -0.772 OA
ATOM     29  H   UNL d   1      40.485 -12.449  18.197  0.00  0.00     0.167 HD
ENDBRANCH  26  28
ENDBRANCH   7  26
BRANCH   8  30
ATOM     30  C   UNL d   1      43.096 -13.669  16.997  0.00  0.00     0.216 C 
BRANCH  30  31
ATOM     31  O   UNL d   1      43.107 -12.411  17.691  0.00  0.00    -0.317 OA
BRANCH  31  32
ATOM     32  C   UNL d   1      44.206 -11.634  17.512  0.00  0.00     0.255 C 
ATOM     33  O   UNL d   1      44.754 -11.413  16.443  0.00  0.00    -0.266 OA
ATOM     34  C   UNL d   1      44.649 -11.061  18.825  0.00  0.00     0.126 C 
ENDBRANCH  31  32
ENDBRANCH  30  31
ENDBRANCH   8  30
TORSDOF 10
ENDMDL
MODEL 3
REMARK VINA RESULT:      -7.3      2.776      4.361
REMARK  10 active torsions:
REMARK  status: ('A' for Active; 'I' for Inactive)
REMARK    1  A    between atoms: O_4  and  C_21 
REMARK    2  A    between atoms: O_4  and  C_26 
REMARK    3  A    between atoms: O_5  and  C_22 
REMARK    4  A    between atoms: O_8  and  N_12 
REMARK    5  A    between atoms: CA_16  and  N_11 
REMARK       I    between atoms: N_11  and  C_23 
REMARK    6  A    between atoms: N_14  and  C_29 
REMARK    7  A    between atoms: CA_18  and  C_22 
REMARK    8  A    between atoms: C_19  and  C_21 
REMARK    9  A    between atoms: C_23  and  C_24 
REMARK   10  A    between atoms: C_24  and  C_25 
ROOT
ATOM      1  S   UNL d   1      38.407 -10.492  13.491  0.00  0.00    -0.136 SA
ATOM      2  O   UNL d   1      37.724 -14.374  12.216  0.00  0.00    -0.271 OA
ATOM      3  N   UNL d   1      36.725 -12.288  12.479  0.00  0.00    -0.293 N 
ATOM      4  C   UNL d   1      36.966 -11.577  13.733  0.00  0.00     0.187 C 
ATOM      5  CA  UNL d   1      37.215 -12.998  14.358  0.00  0.00     0.211 C 
ATOM      6  C   UNL d   1      37.359 -13.432  12.867  0.00  0.00     0.251 C 
ATOM      7  CA  UNL d   1      36.645 -11.679  11.245  0.00  0.00     0.117 C 
ATOM      8  C   UNL d   1      37.028 -10.379  11.071  0.00  0.00    -0.013 C 
ATOM      9  C   UNL d   1      37.597  -9.519  12.178  0.00  0.00     0.115 C 
ENDROOT
BRANCH   5  10
ATOM     10  N   UNL d   1      38.291 -13.123  15.405  0.00  0.00    -0.339 N 
ATOM     11  C   UNL d   1      38.513 -14.406  15.904  0.00  0.00     0.275 C 
ATOM     12  O   UNL d   1      37.833 -15.350  15.500  0.00  0.00    -0.266 OA
ATOM     13  H   UNL d   1      38.965 -12.393  15.609  0.00  0.00     0.163 HD
BRANCH  11  14
ATOM     14  C   UNL d   1      39.571 -14.694  16.975  0.00  0.00     0.180 C 
ATOM     15  N   UNL d   1      39.415 -15.133  18.188  0.00  0.00    -0.126 NA
BRANCH  15  16
ATOM     16  O   UNL d   1      38.113 -15.403  18.609  0.00  0.00    -0.261 OA
ATOM     17  C   UNL d   1      38.029 -16.831  18.766  0.00  0.00     0.240 C 
ENDBRANCH  15  16
BRANCH  14  18
ATOM     18  C   UNL d   1      40.956 -14.317  16.654  0.00  0.00     0.102 A 
ATOM     19  N   UNL d   1      41.250 -13.237  15.831  0.00  0.00    -0.222 NA
ATOM     20  C   UNL d   1      42.538 -13.011  15.818  0.00  0.00     0.164 A 
ATOM     21  S   UNL d   1      43.495 -14.126  16.702  0.00  0.00    -0.062 SA
ATOM     22  C   UNL d   1      42.073 -14.948  17.179  0.00  0.00     0.087 A 
BRANCH  20  23
ATOM     23  N   UNL d   1      43.091 -11.982  15.160  0.00  0.00    -0.378 N 
ATOM     24  H   UNL d   1      43.304 -11.132  15.663  0.00  0.00     0.158 HD
ATOM     25  H   UNL d   1      43.730 -12.221  14.412  0.00  0.00     0.158 HD
ENDBRANCH  20  23
ENDBRANCH  14  18
ENDBRANCH  11  14
ENDBRANCH   5  10
BRANCH   7  26
ATOM     26  C   UNL d   1      35.986 -12.450  10.112  0.00  0.00     0.194 C 
ATOM     27  OXT UNL d   1      34.775 -12.480   9.938  0.00  0.00    -0.645 OA
BRANCH  26  28
ATOM     28  O   UNL d   1      36.813 -13.229   9.397  0.00  0.00    -0.772 OA
ATOM     29  H   UNL d   1      37.769 -13.035   9.497  0.00  0.00     0.167 HD
ENDBRANCH  26  28
ENDBRANCH   7  26
BRANCH   8  30
ATOM     30  C   UNL d   1      36.999  -9.662   9.729  0.00  0.00     0.216 C 
BRANCH  30  31
ATOM     31  O   UNL d   1      37.042  -8.239   9.923  0.00  0.00    -0.317 OA
BRANCH  31  32
ATOM     32  C   UNL d   1      38.032  -7.573   9.274  0.00  0.00     0.255 C 
ATOM     33  O   UNL d   1      38.952  -6.971   9.808  0.00  0.00    -0.266 OA
ATOM     34  C   UNL d   1      37.848  -7.695   7.792  0.00  0.00     0.126 C 
ENDBRANCH  31  32
ENDBRANCH  30  31
ENDBRANCH   8  30
TORSDOF 10
ENDMDL
MODEL 4
REMARK VINA RESULT:      -7.2      2.829      9.155
REMARK  10 active torsions:
REMARK  status: ('A' for Active; 'I' for Inactive)
REMARK    1  A    between atoms: O_4  and  C_21 
REMARK    2  A    between atoms: O_4  and  C_26 
REMARK    3  A    between atoms: O_5  and  C_22 
REMARK    4  A    between atoms: O_8  and  N_12 
REMARK    5  A    between atoms: CA_16  and  N_11 
REMARK       I    between atoms: N_11  and  C_23 
REMARK    6  A    between atoms: N_14  and  C_29 
REMARK    7  A    between atoms: CA_18  and  C_22 
REMARK    8  A    between atoms: C_19  and  C_21 
REMARK    9  A    between atoms: C_23  and  C_24 
REMARK   10  A    between atoms: C_24  and  C_25 
ROOT
ATOM      1  S   UNL d   1      37.203 -13.869  13.016  0.00  0.00    -0.136 SA
ATOM      2  O   UNL d   1      40.817 -11.843  13.056  0.00  0.00    -0.271 OA
ATOM      3  N   UNL d   1      38.964 -12.390  14.355  0.00  0.00    -0.293 N 
ATOM      4  C   UNL d   1      37.645 -12.259  13.739  0.00  0.00     0.187 C 
ATOM      5  CA  UNL d   1      38.316 -11.192  12.799  0.00  0.00     0.211 C 
ATOM      6  C   UNL d   1      39.641 -11.843  13.305  0.00  0.00     0.251 C 
ATOM      7  CA  UNL d   1      39.317 -13.401  15.223  0.00  0.00     0.117 C 
ATOM      8  C   UNL d   1      38.525 -14.502  15.388  0.00  0.00    -0.013 C 
ATOM      9  C   UNL d   1      37.238 -14.729  14.624  0.00  0.00     0.115 C 
ENDROOT
BRANCH   5  10
ATOM     10  N   UNL d   1      37.869 -11.145  11.362  0.00  0.00    -0.339 N 
ATOM     11  C   UNL d   1      37.192  -9.992  10.968  0.00  0.00     0.275 C 
ATOM     12  O   UNL d   1      36.976  -9.096  11.786  0.00  0.00    -0.266 OA
ATOM     13  H   UNL d   1      38.194 -11.791  10.650  0.00  0.00     0.163 HD
BRANCH  11  14
ATOM     14  C   UNL d   1      36.671  -9.797   9.541  0.00  0.00     0.180 C 
ATOM     15  N   UNL d   1      35.859 -10.542   8.852  0.00  0.00    -0.126 NA
BRANCH  15  16
ATOM     16  O   UNL d   1      35.360 -11.689   9.472  0.00  0.00    -0.261 OA
ATOM     17  C   UNL d   1      36.074 -12.799   8.898  0.00  0.00     0.240 C 
ENDBRANCH  15  16
BRANCH  14  18
ATOM     18  C   UNL d   1      37.246  -8.682   8.774  0.00  0.00     0.102 A 
ATOM     19  N   UNL d   1      37.124  -8.602   7.392  0.00  0.00    -0.222 NA
ATOM     20  C   UNL d   1      37.580  -7.455   6.960  0.00  0.00     0.164 A 
ATOM     21  S   UNL d   1      38.273  -6.435   8.151  0.00  0.00    -0.062 SA
ATOM     22  C   UNL d   1      37.892  -7.598   9.348  0.00  0.00     0.087 A 
BRANCH  20  23
ATOM     23  N   UNL d   1      37.519  -7.085   5.673  0.00  0.00    -0.378 N 
ATOM     24  H   UNL d   1      36.867  -6.364   5.396  0.00  0.00     0.158 HD
ATOM     25  H   UNL d   1      38.391  -7.108   5.159  0.00  0.00     0.158 HD
ENDBRANCH  20  23
ENDBRANCH  14  18
ENDBRANCH  11  14
ENDBRANCH   5  10
BRANCH   7  26
ATOM     26  C   UNL d   1      40.542 -13.192  16.099  0.00  0.00     0.194 C 
ATOM     27  OXT UNL d   1      40.503 -12.621  17.181  0.00  0.00    -0.645 OA
BRANCH  26  28
ATOM     28  O   UNL d   1      41.710 -13.540  15.537  0.00  0.00    -0.772 OA
ATOM     29  H   UNL d   1      42.440 -12.894  15.643  0.00  0.00     0.167 HD
ENDBRANCH  26  28
ENDBRANCH   7  26
BRANCH   8  30
ATOM     30  C   UNL d   1      38.876 -15.667  16.301  0.00  0.00     0.216 C 
BRANCH  30  31
ATOM     31  O   UNL d   1      39.350 -16.782  15.529  0.00  0.00    -0.317 OA
BRANCH  31  32
ATOM     32  C   UNL d   1      40.688 -16.832  15.302  0.00  0.00     0.255 C 
ATOM     33  O   UNL d   1      41.262 -16.367  14.329  0.00  0.00    -0.266 OA
ATOM     34  C   UNL d   1      41.375 -17.532  16.435  0.00  0.00     0.126 C 
ENDBRANCH  31  32
ENDBRANCH  30  31
ENDBRANCH   8  30
TORSDOF 10
ENDMDL
MODEL 5
REMARK VINA RESULT:      -7.2     13.121     19.316
REMARK  10 active torsions:
REMARK  status: ('A' for Active; 'I' for Inactive)
REMARK    1  A    between atoms: O_4  and  C_21 
REMARK    2  A    between atoms: O_4  and  C_26 
REMARK    3  A    between atoms: O_5  and  C_22 
REMARK    4  A    between atoms: O_8  and  N_12 
REMARK    5  A    between atoms: CA_16  and  N_11 
REMARK       I    between atoms: N_11  and  C_23 
REMARK    6  A    between atoms: N_14  and  C_29 
REMARK    7  A    between atoms: CA_18  and  C_22 
REMARK    8  A    between atoms: C_19  and  C_21 
REMARK    9  A    between atoms: C_23  and  C_24 
REMARK   10  A    between atoms: C_24  and  C_25 
ROOT
ATOM      1  S   UNL d   1      36.674  -8.095  -2.373  0.00  0.00    -0.136 SA
ATOM      2  O   UNL d   1      40.240  -8.728  -4.386  0.00  0.00    -0.271 OA
ATOM      3  N   UNL d   1      39.138  -7.269  -2.946  0.00  0.00    -0.293 N 
ATOM      4  C   UNL d   1      37.752  -6.927  -3.260  0.00  0.00     0.187 C 
ATOM      5  CA  UNL d   1      38.127  -7.263  -4.750  0.00  0.00     0.211 C 
ATOM      6  C   UNL d   1      39.349  -7.975  -4.093  0.00  0.00     0.251 C 
ATOM      7  CA  UNL d   1      39.618  -7.464  -1.668  0.00  0.00     0.117 C 
ATOM      8  C   UNL d   1      38.769  -7.590  -0.605  0.00  0.00    -0.013 C 
ATOM      9  C   UNL d   1      37.261  -7.566  -0.730  0.00  0.00     0.115 C 
ENDROOT
BRANCH   5  10
ATOM     10  N   UNL d   1      37.084  -7.940  -5.599  0.00  0.00    -0.339 N 
ATOM     11  C   UNL d   1      36.262  -7.098  -6.347  0.00  0.00     0.275 C 
ATOM     12  O   UNL d   1      36.402  -5.877  -6.273  0.00  0.00    -0.266 OA
ATOM     13  H   UNL d   1      37.080  -8.935  -5.799  0.00  0.00     0.163 HD
BRANCH  11  14
ATOM     14  C   UNL d   1      35.152  -7.636  -7.256  0.00  0.00     0.180 C 
ATOM     15  N   UNL d   1      34.081  -8.302  -6.942  0.00  0.00    -0.126 NA
BRANCH  15  16
ATOM     16  O   UNL d   1      33.871  -8.576  -5.590  0.00  0.00    -0.261 OA
ATOM     17  C   UNL d   1      32.457  -8.797  -5.440  0.00  0.00     0.240 C 
ENDBRANCH  15  16
BRANCH  14  18
ATOM     18  C   UNL d   1      35.361  -7.499  -8.705  0.00  0.00     0.102 A 
ATOM     19  N   UNL d   1      34.713  -8.321  -9.620  0.00  0.00    -0.222 NA
ATOM     20  C   UNL d   1      34.940  -7.910 -10.841  0.00  0.00     0.164 A 
ATOM     21  S   UNL d   1      36.016  -6.584 -10.990  0.00  0.00    -0.062 SA
ATOM     22  C   UNL d   1      36.153  -6.521  -9.286  0.00  0.00     0.087 A 
BRANCH  20  23
ATOM     23  N   UNL d   1      34.379  -8.480 -11.917  0.00  0.00    -0.378 N 
ATOM     24  H   UNL d   1      33.461  -8.896 -11.833  0.00  0.00     0.158 HD
ATOM     25  H   UNL d   1      34.584  -8.049 -12.810  0.00  0.00     0.158 HD
ENDBRANCH  20  23
ENDBRANCH  14  18
ENDBRANCH  11  14
ENDBRANCH   5  10
BRANCH   7  26
ATOM     26  C   UNL d   1      41.121  -7.394  -1.455  0.00  0.00     0.194 C 
ATOM     27  OXT UNL d   1      41.701  -6.378  -1.094  0.00  0.00    -0.645 OA
BRANCH  26  28
ATOM     28  O   UNL d   1      41.802  -8.486  -1.837  0.00  0.00    -0.772 OA
ATOM     29  H   UNL d   1      41.839  -9.213  -1.180  0.00  0.00     0.167 HD
ENDBRANCH  26  28
ENDBRANCH   7  26
BRANCH   8  30
ATOM     30  C   UNL d   1      39.234  -7.843   0.822  0.00  0.00     0.216 C 
BRANCH  30  31
ATOM     31  O   UNL d   1      38.166  -8.400   1.603  0.00  0.00    -0.317 OA
BRANCH  31  32
ATOM     32  C   UNL d   1      38.240  -8.212   2.946  0.00  0.00     0.255 C 
ATOM     33  O   UNL d   1      39.218  -7.804   3.554  0.00  0.00    -0.266 OA
ATOM     34  C   UNL d   1      36.932  -8.563   3.587  0.00  0.00     0.126 C 
ENDBRANCH  31  32
ENDBRANCH  30  31
ENDBRANCH   8  30
TORSDOF 10
ENDMDL
MODEL 6
REMARK VINA RESULT:      -7.2     15.071     20.934
REMARK  10 active torsions:
REMARK  status: ('A' for Active; 'I' for Inactive)
REMARK    1  A    between atoms: O_4  and  C_21 
REMARK    2  A    between atoms: O_4  and  C_26 
REMARK    3  A    between atoms: O_5  and  C_22 
REMARK    4  A    between atoms: O_8  and  N_12 
REMARK    5  A    between atoms: CA_16  and  N_11 
REMARK       I    between atoms: N_11  and  C_23 
REMARK    6  A    between atoms: N_14  and  C_29 
REMARK    7  A    between atoms: CA_18  and  C_22 
REMARK    8  A    between atoms: C_19  and  C_21 
REMARK    9  A    between atoms: C_23  and  C_24 
REMARK   10  A    between atoms: C_24  and  C_25 
ROOT
ATOM      1  S   UNL d   1      36.660  -7.062  -4.980  0.00  0.00    -0.136 SA
ATOM      2  O   UNL d   1      38.732 -10.572  -5.721  0.00  0.00    -0.271 OA
ATOM      3  N   UNL d   1      38.871  -8.507  -4.657  0.00  0.00    -0.293 N 
ATOM      4  C   UNL d   1      38.411  -7.333  -5.397  0.00  0.00     0.187 C 
ATOM      5  CA  UNL d   1      38.736  -8.164  -6.691  0.00  0.00     0.211 C 
ATOM      6  C   UNL d   1      38.729  -9.370  -5.702  0.00  0.00     0.251 C 
ATOM      7  CA  UNL d   1      38.682  -8.694  -3.304  0.00  0.00     0.117 C 
ATOM      8  C   UNL d   1      37.829  -7.898  -2.592  0.00  0.00    -0.013 C 
ATOM      9  C   UNL d   1      37.005  -6.790  -3.210  0.00  0.00     0.115 C 
ENDROOT
BRANCH   5  10
ATOM     10  N   UNL d   1      37.816  -8.007  -7.873  0.00  0.00    -0.339 N 
ATOM     11  C   UNL d   1      38.343  -7.338  -8.976  0.00  0.00     0.275 C 
ATOM     12  O   UNL d   1      39.493  -6.899  -8.936  0.00  0.00    -0.266 OA
ATOM     13  H   UNL d   1      36.943  -8.514  -7.978  0.00  0.00     0.163 HD
BRANCH  11  14
ATOM     14  C   UNL d   1      37.530  -7.097 -10.252  0.00  0.00     0.180 C 
ATOM     15  N   UNL d   1      37.508  -6.056 -11.029  0.00  0.00    -0.126 NA
BRANCH  15  16
ATOM     16  O   UNL d   1      38.339  -4.987 -10.692  0.00  0.00    -0.261 OA
ATOM     17  C   UNL d   1      39.061  -4.647 -11.891  0.00  0.00     0.240 C 
ENDBRANCH  15  16
BRANCH  14  18
ATOM     18  C   UNL d   1      36.537  -8.122 -10.606  0.00  0.00     0.102 A 
ATOM     19  N   UNL d   1      36.912  -9.367 -11.097  0.00  0.00    -0.222 NA
ATOM     20  C   UNL d   1      35.869 -10.151 -11.193  0.00  0.00     0.164 A 
ATOM     21  S   UNL d   1      34.362  -9.434 -10.802  0.00  0.00    -0.062 SA
ATOM     22  C   UNL d   1      35.170  -7.972 -10.429  0.00  0.00     0.087 A 
BRANCH  20  23
ATOM     23  N   UNL d   1      35.955 -11.434 -11.573  0.00  0.00    -0.378 N 
ATOM     24  H   UNL d   1      35.142 -11.889 -11.963  0.00  0.00     0.158 HD
ATOM     25  H   UNL d   1      36.847 -11.729 -11.952  0.00  0.00     0.158 HD
ENDBRANCH  20  23
ENDBRANCH  14  18
ENDBRANCH  11  14
ENDBRANCH   5  10
BRANCH   7  26
ATOM     26  C   UNL d   1      39.554  -9.719  -2.598  0.00  0.00     0.194 C 
ATOM     27  OXT UNL d   1      40.657  -9.457  -2.136  0.00  0.00    -0.645 OA
BRANCH  26  28
ATOM     28  O   UNL d   1      39.102 -10.983  -2.648  0.00  0.00    -0.772 OA
ATOM     29  H   UNL d   1      39.261 -11.521  -1.844  0.00  0.00     0.167 HD
ENDBRANCH  26  28
ENDBRANCH   7  26
BRANCH   8  30
ATOM     30  C   UNL d   1      37.549  -8.076  -1.107  0.00  0.00     0.216 C 
BRANCH  30  31
ATOM     31  O   UNL d   1      36.924  -6.899  -0.572  0.00  0.00    -0.317 OA
BRANCH  31  32
ATOM     32  C   UNL d   1      37.482  -6.378   0.552  0.00  0.00     0.255 C 
ATOM     33  O   UNL d   1      36.937  -6.292   1.642  0.00  0.00    -0.266 OA
ATOM     34  C   UNL d   1      38.884  -5.933   0.269  0.00  0.00     0.126 C 
ENDBRANCH  31  32
ENDBRANCH  30  31
ENDBRANCH   8  30
TORSDOF 10
ENDMDL
MODEL 7
REMARK VINA RESULT:      -7.1     13.772     19.770
REMARK  10 active torsions:
REMARK  status: ('A' for Active; 'I' for Inactive)
REMARK    1  A    between atoms: O_4  and  C_21 
REMARK    2  A    between atoms: O_4  and  C_26 
REMARK    3  A    between atoms: O_5  and  C_22 
REMARK    4  A    between atoms: O_8  and  N_12 
REMARK    5  A    between atoms: CA_16  and  N_11 
REMARK       I    between atoms: N_11  and  C_23 
REMARK    6  A    between atoms: N_14  and  C_29 
REMARK    7  A    between atoms: CA_18  and  C_22 
REMARK    8  A    between atoms: C_19  and  C_21 
REMARK    9  A    between atoms: C_23  and  C_24 
REMARK   10  A    between atoms: C_24  and  C_25 
ROOT
ATOM      1  S   UNL d   1      38.300  -9.394  -3.627  0.00  0.00    -0.136 SA
ATOM      2  O   UNL d   1      42.019  -7.568  -3.612  0.00  0.00    -0.271 OA
ATOM      3  N   UNL d   1      39.841  -7.382  -2.814  0.00  0.00    -0.293 N 
ATOM      4  C   UNL d   1      38.752  -7.636  -3.756  0.00  0.00     0.187 C 
ATOM      5  CA  UNL d   1      39.777  -7.222  -4.874  0.00  0.00     0.211 C 
ATOM      6  C   UNL d   1      40.829  -7.466  -3.750  0.00  0.00     0.251 C 
ATOM      7  CA  UNL d   1      39.823  -7.761  -1.488  0.00  0.00     0.117 C 
ATOM      8  C   UNL d   1      38.876  -8.623  -1.011  0.00  0.00    -0.013 C 
ATOM      9  C   UNL d   1      37.809  -9.257  -1.876  0.00  0.00     0.115 C 
ENDROOT
BRANCH   5  10
ATOM     10  N   UNL d   1      39.721  -7.964  -6.184  0.00  0.00    -0.339 N 
ATOM     11  C   UNL d   1      38.886  -7.423  -7.160  0.00  0.00     0.275 C 
ATOM     12  O   UNL d   1      38.234  -6.406  -6.917  0.00  0.00    -0.266 OA
ATOM     13  H   UNL d   1      40.380  -8.689  -6.448  0.00  0.00     0.163 HD
BRANCH  11  14
ATOM     14  C   UNL d   1      38.720  -8.065  -8.541  0.00  0.00     0.180 C 
ATOM     15  N   UNL d   1      39.112  -9.231  -8.959  0.00  0.00    -0.126 NA
BRANCH  15  16
ATOM     16  O   UNL d   1      39.774 -10.050  -8.044  0.00  0.00    -0.261 OA
ATOM     17  C   UNL d   1      39.865 -11.348  -8.659  0.00  0.00     0.240 C 
ENDBRANCH  15  16
BRANCH  14  18
ATOM     18  C   UNL d   1      38.146  -7.219  -9.599  0.00  0.00     0.102 A 
ATOM     19  N   UNL d   1      38.876  -6.201 -10.200  0.00  0.00    -0.222 NA
ATOM     20  C   UNL d   1      38.209  -5.695 -11.206  0.00  0.00     0.164 A 
ATOM     21  S   UNL d   1      36.632  -6.326 -11.442  0.00  0.00    -0.062 SA
ATOM     22  C   UNL d   1      36.876  -7.392 -10.127  0.00  0.00     0.087 A 
BRANCH  20  23
ATOM     23  N   UNL d   1      38.710  -4.745 -12.007  0.00  0.00    -0.378 N 
ATOM     24  H   UNL d   1      38.391  -4.687 -12.965  0.00  0.00     0.158 HD
ATOM     25  H   UNL d   1      38.935  -3.861 -11.567  0.00  0.00     0.158 HD
ENDBRANCH  20  23
ENDBRANCH  14  18
ENDBRANCH  11  14
ENDBRANCH   5  10
BRANCH   7  26
ATOM     26  C   UNL d   1      40.800  -7.083  -0.542  0.00  0.00     0.194 C 
ATOM     27  OXT UNL d   1      41.917  -7.524  -0.303  0.00  0.00    -0.645 OA
BRANCH  26  28
ATOM     28  O   UNL d   1      40.301  -6.041   0.142  0.00  0.00    -0.772 OA
ATOM     29  H   UNL d   1      39.436  -5.704  -0.172  0.00  0.00     0.167 HD
ENDBRANCH  26  28
ENDBRANCH   7  26
BRANCH   8  30
ATOM     30  C   UNL d   1      38.825  -9.107   0.431  0.00  0.00     0.216 C 
BRANCH  30  31
ATOM     31  O   UNL d   1      37.847  -8.361   1.173  0.00  0.00    -0.317 OA
BRANCH  31  32
ATOM     32  C   UNL d   1      38.197  -7.997   2.434  0.00  0.00     0.255 C 
ATOM     33  O   UNL d   1      39.212  -7.393   2.743  0.00  0.00    -0.266 OA
ATOM     34  C   UNL d   1      37.141  -8.431   3.405  0.00  0.00     0.126 C 
ENDBRANCH  31  32
ENDBRANCH  30  31
ENDBRANCH   8  30
TORSDOF 10
ENDMDL
MODEL 8
REMARK VINA RESULT:      -7.0     13.886     18.002
REMARK  10 active torsions:
REMARK  status: ('A' for Active; 'I' for Inactive)
REMARK    1  A    between atoms: O_4  and  C_21 
REMARK    2  A    between atoms: O_4  and  C_26 
REMARK    3  A    between atoms: O_5  and  C_22 
REMARK    4  A    between atoms: O_8  and  N_12 
REMARK    5  A    between atoms: CA_16  and  N_11 
REMARK       I    between atoms: N_11  and  C_23 
REMARK    6  A    between atoms: N_14  and  C_29 
REMARK    7  A    between atoms: CA_18  and  C_22 
REMARK    8  A    between atoms: C_19  and  C_21 
REMARK    9  A    between atoms: C_23  and  C_24 
REMARK   10  A    between atoms: C_24  and  C_25 
ROOT
ATOM      1  S   UNL d   1      36.643  -6.988  -4.569  0.00  0.00    -0.136 SA
ATOM      2  O   UNL d   1      40.430  -6.746  -6.232  0.00  0.00    -0.271 OA
ATOM      3  N   UNL d   1      38.434  -7.943  -6.290  0.00  0.00    -0.293 N 
ATOM      4  C   UNL d   1      37.824  -8.300  -5.011  0.00  0.00     0.187 C 
ATOM      5  CA  UNL d   1      39.278  -8.207  -4.421  0.00  0.00     0.211 C 
ATOM      6  C   UNL d   1      39.570  -7.427  -5.739  0.00  0.00     0.251 C 
ATOM      7  CA  UNL d   1      37.724  -7.563  -7.409  0.00  0.00     0.117 C 
ATOM      8  C   UNL d   1      36.394  -7.257  -7.333  0.00  0.00    -0.013 C 
ATOM      9  C   UNL d   1      35.605  -7.269  -6.042  0.00  0.00     0.115 C 
ENDROOT
BRANCH   5  10
ATOM     10  N   UNL d   1      39.435  -7.648  -3.031  0.00  0.00    -0.339 N 
ATOM     11  C   UNL d   1      40.532  -8.108  -2.306  0.00  0.00     0.275 C 
ATOM     12  O   UNL d   1      41.294  -8.939  -2.803  0.00  0.00    -0.266 OA
ATOM     13  H   UNL d   1      38.921  -6.843  -2.687  0.00  0.00     0.163 HD
BRANCH  11  14
ATOM     14  C   UNL d   1      40.825  -7.636  -0.877  0.00  0.00     0.180 C 
ATOM     15  N   UNL d   1      41.968  -7.402  -0.306  0.00  0.00    -0.126 NA
BRANCH  15  16
ATOM     16  O   UNL d   1      43.118  -7.585  -1.075  0.00  0.00    -0.261 OA
ATOM     17  C   UNL d   1      44.210  -7.064  -0.296  0.00  0.00     0.240 C 
ENDBRANCH  15  16
BRANCH  14  18
ATOM     18  C   UNL d   1      39.676  -7.540   0.035  0.00  0.00     0.102 A 
ATOM     19  N   UNL d   1      38.870  -6.409   0.082  0.00  0.00    -0.222 NA
ATOM     20  C   UNL d   1      37.834  -6.620   0.853  0.00  0.00     0.164 A 
ATOM     21  S   UNL d   1      37.800  -8.137   1.651  0.00  0.00    -0.062 SA
ATOM     22  C   UNL d   1      39.259  -8.567   0.869  0.00  0.00     0.087 A 
BRANCH  20  23
ATOM     23  N   UNL d   1      36.856  -5.719   1.022  0.00  0.00    -0.378 N 
ATOM     24  H   UNL d   1      36.113  -5.663   0.339  0.00  0.00     0.158 HD
ATOM     25  H   UNL d   1      36.588  -5.523   1.979  0.00  0.00     0.158 HD
ENDBRANCH  20  23
ENDBRANCH  14  18
ENDBRANCH  11  14
ENDBRANCH   5  10
BRANCH   7  26
ATOM     26  C   UNL d   1      38.427  -7.629  -8.754  0.00  0.00     0.194 C 
ATOM     27  OXT UNL d   1      38.992  -6.669  -9.263  0.00  0.00    -0.645 OA
BRANCH  26  28
ATOM     28  O   UNL d   1      38.259  -8.777  -9.430  0.00  0.00    -0.772 OA
ATOM     29  H   UNL d   1      39.084  -9.235  -9.698  0.00  0.00     0.167 HD
ENDBRANCH  26  28
ENDBRANCH   7  26
BRANCH   8  30
ATOM     30  C   UNL d   1      35.565  -6.796  -8.522  0.00  0.00     0.216 C 
BRANCH  30  31
ATOM     31  O   UNL d   1      34.818  -7.896  -9.066  0.00  0.00    -0.317 OA
BRANCH  31  32
ATOM     32  C   UNL d   1      35.044  -8.191 -10.373  0.00  0.00     0.255 C 
ATOM     33  O   UNL d   1      35.907  -7.687 -11.076  0.00  0.00    -0.266 OA
ATOM     34  C   UNL d   1      34.087  -9.248 -10.834  0.00  0.00     0.126 C 
ENDBRANCH  31  32
ENDBRANCH  30  31
ENDBRANCH   8  30
TORSDOF 10
ENDMDL
MODEL 9
REMARK VINA RESULT:      -7.0     14.361     20.371
REMARK  10 active torsions:
REMARK  status: ('A' for Active; 'I' for Inactive)
REMARK    1  A    between atoms: O_4  and  C_21 
REMARK    2  A    between atoms: O_4  and  C_26 
REMARK    3  A    between atoms: O_5  and  C_22 
REMARK    4  A    between atoms: O_8  and  N_12 
REMARK    5  A    between atoms: CA_16  and  N_11 
REMARK       I    between atoms: N_11  and  C_23 
REMARK    6  A    between atoms: N_14  and  C_29 
REMARK    7  A    between atoms: CA_18  and  C_22 
REMARK    8  A    between atoms: C_19  and  C_21 
REMARK    9  A    between atoms: C_23  and  C_24 
REMARK   10  A    between atoms: C_24  and  C_25 
ROOT
ATOM      1  S   UNL d   1      36.741  -9.393  -4.292  0.00  0.00    -0.136 SA
ATOM      2  O   UNL d   1      40.345  -7.480  -5.009  0.00  0.00    -0.271 OA
ATOM      3  N   UNL d   1      38.326  -7.299  -3.865  0.00  0.00    -0.293 N 
ATOM      4  C   UNL d   1      37.104  -7.636  -4.593  0.00  0.00     0.187 C 
ATOM      5  CA  UNL d   1      37.912  -7.266  -5.890  0.00  0.00     0.211 C 
ATOM      6  C   UNL d   1      39.146  -7.415  -4.948  0.00  0.00     0.251 C 
ATOM      7  CA  UNL d   1      38.544  -7.597  -2.536  0.00  0.00     0.117 C 
ATOM      8  C   UNL d   1      37.721  -8.451  -1.858  0.00  0.00    -0.013 C 
ATOM      9  C   UNL d   1      36.546  -9.162  -2.494  0.00  0.00     0.115 C 
ENDROOT
BRANCH   5  10
ATOM     10  N   UNL d   1      37.663  -8.088  -7.128  0.00  0.00    -0.339 N 
ATOM     11  C   UNL d   1      38.302  -7.655  -8.289  0.00  0.00     0.275 C 
ATOM     12  O   UNL d   1      39.004  -6.644  -8.264  0.00  0.00    -0.266 OA
ATOM     13  H   UNL d   1      37.236  -9.008  -7.116  0.00  0.00     0.163 HD
BRANCH  11  14
ATOM     14  C   UNL d   1      38.145  -8.384  -9.628  0.00  0.00     0.180 C 
ATOM     15  N   UNL d   1      38.895  -9.302 -10.158  0.00  0.00    -0.126 NA
BRANCH  15  16
ATOM     16  O   UNL d   1      40.008  -9.720  -9.428  0.00  0.00    -0.261 OA
ATOM     17  C   UNL d   1      39.686 -11.027  -8.917  0.00  0.00     0.240 C 
ENDBRANCH  15  16
BRANCH  14  18
ATOM     18  C   UNL d   1      37.069  -7.913 -10.514  0.00  0.00     0.102 A 
ATOM     19  N   UNL d   1      36.001  -8.729 -10.868  0.00  0.00    -0.222 NA
ATOM     20  C   UNL d   1      35.106  -8.045 -11.532  0.00  0.00     0.164 A 
ATOM     21  S   UNL d   1      35.516  -6.414 -11.866  0.00  0.00    -0.062 SA
ATOM     22  C   UNL d   1      36.986  -6.623 -11.016  0.00  0.00     0.087 A 
BRANCH  20  23
ATOM     23  N   UNL d   1      33.940  -8.570 -11.934  0.00  0.00    -0.378 N 
ATOM     24  H   UNL d   1      33.868  -8.957 -12.865  0.00  0.00     0.158 HD
ATOM     25  H   UNL d   1      33.388  -9.033 -11.223  0.00  0.00     0.158 HD
ENDBRANCH  20  23
ENDBRANCH  14  18
ENDBRANCH  11  14
ENDBRANCH   5  10
BRANCH   7  26
ATOM     26  C   UNL d   1      39.642  -6.839  -1.808  0.00  0.00     0.194 C 
ATOM     27  OXT UNL d   1      40.806  -7.217  -1.772  0.00  0.00    -0.645 OA
BRANCH  26  28
ATOM     28  O   UNL d   1      39.224  -5.799  -1.070  0.00  0.00    -0.772 OA
ATOM     29  H   UNL d   1      39.452  -4.912  -1.421  0.00  0.00     0.167 HD
ENDBRANCH  26  28
ENDBRANCH   7  26
BRANCH   8  30
ATOM     30  C   UNL d   1      37.928  -8.848  -0.404  0.00  0.00     0.216 C 
BRANCH  30  31
ATOM     31  O   UNL d   1      37.586  -7.756   0.465  0.00  0.00    -0.317 OA
BRANCH  31  32
ATOM     32  C   UNL d   1      38.327  -7.632   1.597  0.00  0.00     0.255 C 
ATOM     33  O   UNL d   1      39.242  -6.840   1.764  0.00  0.00    -0.266 OA
ATOM     34  C   UNL d   1      37.847  -8.602   2.633  0.00  0.00     0.126 C 
ENDBRANCH  31  32
ENDBRANCH  30  31
ENDBRANCH   8  30
TORSDOF 10
ENDMDL
