MODEL 1
REMARK VINA RESULT:      -4.0      0.000      0.000
REMARK  2 active torsions:
REMARK  status: ('A' for Active; 'I' for Inactive)
REMARK    1  A    between atoms: C_1  and  O_3 
REMARK    2  A    between atoms: C_1  and  C_4 
ROOT
ATOM      1  C   UNL d   1       7.686 -10.801 -27.611  0.00  0.00     0.213 C 
ATOM      2  O   UNL d   1       8.678 -11.307 -27.125  0.00  0.00    -0.644 OA
ENDROOT
BRANCH   1   3
ATOM      3  O   UNL d   1       7.691  -9.579 -28.154  0.00  0.00    -0.771 OA
ATOM      4  H   UNL d   1       6.750  -9.334 -28.265  0.00  0.00     0.168 HD
ENDBRANCH   1   3
BRANCH   1   5
ATOM      5  C   UNL d   1       6.313 -11.491 -27.662  0.00  0.00     0.218 C 
ATOM      6  O   UNL d   1       5.747 -11.697 -28.727  0.00  0.00    -0.286 OA
ATOM      7  C   UNL d   1       5.736 -11.884 -26.334  0.00  0.00     0.103 C 
ENDBRANCH   1   5
TORSDOF 2
ENDMDL
MODEL 2
REMARK VINA RESULT:      -4.0      3.781      4.412
REMARK  2 active torsions:
REMARK  status: ('A' for Active; 'I' for Inactive)
REMARK    1  A    between atoms: C_1  and  O_3 
REMARK    2  A    between atoms: C_1  and  C_4 
ROOT
ATOM      1  C   UNL d   1       9.413  -9.183 -24.415  0.00  0.00     0.213 C 
ATOM      2  O   UNL d   1      10.147  -8.912 -25.345  0.00  0.00    -0.644 OA
ENDROOT
BRANCH   1   3
ATOM      3  O   UNL d   1       9.192  -8.341 -23.400  0.00  0.00    -0.771 OA
ATOM      4  H   UNL d   1       9.005  -7.473 -23.811  0.00  0.00     0.168 HD
ENDBRANCH   1   3
BRANCH   1   5
ATOM      5  C   UNL d   1       8.653 -10.513 -24.287  0.00  0.00     0.218 C 
ATOM      6  O   UNL d   1       8.186 -10.876 -23.216  0.00  0.00    -0.286 OA
ATOM      7  C   UNL d   1       8.529 -11.313 -25.551  0.00  0.00     0.103 C 
ENDBRANCH   1   5
TORSDOF 2
ENDMDL
MODEL 3
REMARK VINA RESULT:      -4.0      1.136      2.584
REMARK  2 active torsions:
REMARK  status: ('A' for Active; 'I' for Inactive)
REMARK    1  A    between atoms: C_1  and  O_3 
REMARK    2  A    between atoms: C_1  and  C_4 
ROOT
ATOM      1  C   UNL d   1       6.162 -11.689 -27.638  0.00  0.00     0.213 C 
ATOM      2  O   UNL d   1       5.483 -12.061 -26.702  0.00  0.00    -0.644 OA
ENDROOT
BRANCH   1   3
ATOM      3  O   UNL d   1       5.739 -11.747 -28.905  0.00  0.00    -0.771 OA
ATOM      4  H   UNL d   1       4.772 -11.885 -28.856  0.00  0.00     0.168 HD
ENDBRANCH   1   3
BRANCH   1   5
ATOM      5  C   UNL d   1       7.579 -11.112 -27.488  0.00  0.00     0.218 C 
ATOM      6  O   UNL d   1       7.931 -10.124 -28.119  0.00  0.00    -0.286 OA
ATOM      7  C   UNL d   1       8.476 -11.836 -26.529  0.00  0.00     0.103 C 
ENDBRANCH   1   5
TORSDOF 2
ENDMDL
MODEL 4
REMARK VINA RESULT:      -3.9      3.411      4.300
REMARK  2 active torsions:
REMARK  status: ('A' for Active; 'I' for Inactive)
REMARK    1  A    between atoms: C_1  and  O_3 
REMARK    2  A    between atoms: C_1  and  C_4 
ROOT
ATOM      1  C   UNL d   1       6.076 -12.006 -24.562  0.00  0.00     0.213 C 
ATOM      2  O   UNL d   1       5.744 -13.124 -24.220  0.00  0.00    -0.644 OA
ENDROOT
BRANCH   1   3
ATOM      3  O   UNL d   1       5.523 -11.376 -25.603  0.00  0.00    -0.771 OA
ATOM      4  H   UNL d   1       5.458 -12.044 -26.314  0.00  0.00     0.168 HD
ENDBRANCH   1   3
BRANCH   1   5
ATOM      5  C   UNL d   1       7.163 -11.184 -23.851  0.00  0.00     0.218 C 
ATOM      6  O   UNL d   1       8.090 -11.729 -23.268  0.00  0.00    -0.286 OA
ATOM      7  C   UNL d   1       7.002  -9.694 -23.927  0.00  0.00     0.103 C 
ENDBRANCH   1   5
TORSDOF 2
ENDMDL
MODEL 5
REMARK VINA RESULT:      -3.8      1.518      2.192
REMARK  2 active torsions:
REMARK  status: ('A' for Active; 'I' for Inactive)
REMARK    1  A    between atoms: C_1  and  O_3 
REMARK    2  A    between atoms: C_1  and  C_4 
ROOT
ATOM      1  C   UNL d   1       6.654 -11.609 -27.906  0.00  0.00     0.213 C 
ATOM      2  O   UNL d   1       5.837 -11.749 -28.795  0.00  0.00    -0.644 OA
ENDROOT
BRANCH   1   3
ATOM      3  O   UNL d   1       7.906 -11.198 -28.133  0.00  0.00    -0.771 OA
ATOM      4  H   UNL d   1       7.841 -10.237 -28.308  0.00  0.00     0.168 HD
ENDBRANCH   1   3
BRANCH   1   5
ATOM      5  C   UNL d   1       6.357 -11.885 -26.423  0.00  0.00     0.218 C 
ATOM      6  O   UNL d   1       5.240 -12.218 -26.052  0.00  0.00    -0.286 OA
ATOM      7  C   UNL d   1       7.518 -11.719 -25.488  0.00  0.00     0.103 C 
ENDBRANCH   1   5
TORSDOF 2
ENDMDL
MODEL 6
REMARK VINA RESULT:      -3.8      3.977      5.094
REMARK  2 active torsions:
REMARK  status: ('A' for Active; 'I' for Inactive)
REMARK    1  A    between atoms: C_1  and  O_3 
REMARK    2  A    between atoms: C_1  and  C_4 
ROOT
ATOM      1  C   UNL d   1       7.748 -10.859 -24.004  0.00  0.00     0.213 C 
ATOM      2  O   UNL d   1       7.169 -10.856 -25.072  0.00  0.00    -0.644 OA
ENDROOT
BRANCH   1   3
ATOM      3  O   UNL d   1       7.615 -11.847 -23.113  0.00  0.00    -0.771 OA
ATOM      4  H   UNL d   1       6.674 -12.112 -23.149  0.00  0.00     0.168 HD
ENDBRANCH   1   3
BRANCH   1   5
ATOM      5  C   UNL d   1       8.696  -9.740 -23.544  0.00  0.00     0.218 C 
ATOM      6  O   UNL d   1       8.748  -9.396 -22.371  0.00  0.00    -0.286 OA
ATOM      7  C   UNL d   1       9.535  -9.118 -24.621  0.00  0.00     0.103 C 
ENDBRANCH   1   5
TORSDOF 2
ENDMDL
MODEL 7
REMARK VINA RESULT:      -3.8      3.081      4.202
REMARK  2 active torsions:
REMARK  status: ('A' for Active; 'I' for Inactive)
REMARK    1  A    between atoms: C_1  and  O_3 
REMARK    2  A    between atoms: C_1  and  C_4 
ROOT
ATOM      1  C   UNL d   1       8.660 -10.701 -25.430  0.00  0.00     0.213 C 
ATOM      2  O   UNL d   1       7.583 -11.121 -25.054  0.00  0.00    -0.644 OA
ENDROOT
BRANCH   1   3
ATOM      3  O   UNL d   1       9.370 -11.294 -26.395  0.00  0.00    -0.771 OA
ATOM      4  H   UNL d   1      10.200 -10.781 -26.466  0.00  0.00     0.168 HD
ENDBRANCH   1   3
BRANCH   1   5
ATOM      5  C   UNL d   1       9.337  -9.448 -24.849  0.00  0.00     0.218 C 
ATOM      6  O   UNL d   1      10.222  -8.866 -25.461  0.00  0.00    -0.286 OA
ATOM      7  C   UNL d   1       8.838  -9.006 -23.506  0.00  0.00     0.103 C 
ENDBRANCH   1   5
TORSDOF 2
ENDMDL
MODEL 8
REMARK VINA RESULT:      -3.8      1.977      2.041
REMARK  2 active torsions:
REMARK  status: ('A' for Active; 'I' for Inactive)
REMARK    1  A    between atoms: C_1  and  O_3 
REMARK    2  A    between atoms: C_1  and  C_4 
ROOT
ATOM      1  C   UNL d   1       7.487  -9.743 -27.549  0.00  0.00     0.213 C 
ATOM      2  O   UNL d   1       7.969 -10.635 -28.218  0.00  0.00    -0.644 OA
ENDROOT
BRANCH   1   3
ATOM      3  O   UNL d   1       8.233  -8.860 -26.877  0.00  0.00    -0.771 OA
ATOM      4  H   UNL d   1       8.766  -8.395 -27.553  0.00  0.00     0.168 HD
ENDBRANCH   1   3
BRANCH   1   5
ATOM      5  C   UNL d   1       5.974  -9.518 -27.389  0.00  0.00     0.218 C 
ATOM      6  O   UNL d   1       5.164 -10.206 -27.994  0.00  0.00    -0.286 OA
ATOM      7  C   UNL d   1       5.579  -8.415 -26.452  0.00  0.00     0.103 C 
ENDBRANCH   1   5
TORSDOF 2
ENDMDL
MODEL 9
REMARK VINA RESULT:      -3.8      1.517      2.164
REMARK  2 active torsions:
REMARK  status: ('A' for Active; 'I' for Inactive)
REMARK    1  A    between atoms: C_1  and  O_3 
REMARK    2  A    between atoms: C_1  and  C_4 
ROOT
ATOM      1  C   UNL d   1       6.415 -11.280 -27.922  0.00  0.00     0.213 C 
ATOM      2  O   UNL d   1       5.835 -11.807 -28.851  0.00  0.00    -0.644 OA
ENDROOT
BRANCH   1   3
ATOM      3  O   UNL d   1       7.599 -10.675 -28.060  0.00  0.00    -0.771 OA
ATOM      4  H   UNL d   1       8.216 -11.368 -28.371  0.00  0.00     0.168 HD
ENDBRANCH   1   3
BRANCH   1   5
ATOM      5  C   UNL d   1       5.869 -11.244 -26.485  0.00  0.00     0.218 C 
ATOM      6  O   UNL d   1       5.255 -12.192 -26.017  0.00  0.00    -0.286 OA
ATOM      7  C   UNL d   1       6.144  -9.983 -25.720  0.00  0.00     0.103 C 
ENDBRANCH   1   5
TORSDOF 2
ENDMDL
