REMARK  2 active torsions:
REMARK  status: ('A' for Active; 'I' for Inactive)
REMARK    1  A    between atoms: C_1  and  O_3 
REMARK    2  A    between atoms: C_1  and  C_4 
ROOT
ATOM      1  C   UNL d   1       1.054  -0.074  -0.018  0.00  0.00     0.213 C 
ATOM      2  O   UNL d   1       0.403   0.714  -0.675  0.00  0.00    -0.644 OA
ENDROOT
BRANCH   1   3
ATOM      3  O   UNL d   1       0.491  -1.005   0.759  0.00  0.00    -0.771 OA
ATOM      4  H   UNL d   1      -0.475  -0.885   0.659  0.00  0.00     0.168 HD
ENDBRANCH   1   3
BRANCH   1   5
ATOM      5  C   UNL d   1       2.591  -0.101   0.005  0.00  0.00     0.218 C 
ATOM      6  O   UNL d   1       3.200  -0.917   0.683  0.00  0.00    -0.286 OA
ATOM      7  C   UNL d   1       3.270   0.927  -0.851  0.00  0.00     0.103 C 
ENDBRANCH   1   5
TORSDOF 2
