@<TRIPOS>MOLECULE
PYR
 10 9 0 0 0
SMALL
GASTEIGER

@<TRIPOS>ATOM
      1 C           1.0537   -0.0739   -0.0179 C.2     1  UNL1        0.3723
      2 O           0.4032    0.7140   -0.6755 O.2     1  UNL1       -0.2419
      3 O           0.4912   -1.0046    0.7588 O.3     1  UNL1       -0.4751
      4 C           2.5905   -0.1012    0.0046 C.2     1  UNL1        0.2360
      5 O           3.2004   -0.9166    0.6833 O.2     1  UNL1       -0.2854
      6 C           3.2700    0.9266   -0.8508 C.3     1  UNL1        0.0052
      7 H          -0.4749   -0.8853    0.6592 H       1  UNL1        0.2955
      8 H           2.9955    0.7823   -1.8987 H       1  UNL1        0.0311
      9 H           2.9955    1.9309   -0.5186 H       1  UNL1        0.0311
     10 H           4.3545    0.8138   -0.7568 H       1  UNL1        0.0311
@<TRIPOS>BOND
     1     1     2    2
     2     1     3    1
     3     1     4    1
     4     3     7    1
     5     4     5    2
     6     4     6    1
     7     6     8    1
     8     6     9    1
     9     6    10    1
