MODEL 1
REMARK VINA RESULT:      -8.5      0.000      0.000
REMARK  12 active torsions:
REMARK  status: ('A' for Active; 'I' for Inactive)
REMARK    1  A    between atoms: O_3  and  C_31 
REMARK    2  A    between atoms: OE1_5  and  CD_32 
REMARK    3  A    between atoms: N_9  and  C_16 
REMARK    4  A    between atoms: N_9  and  C_20 
REMARK    5  A    between atoms: CA_21  and  N_12 
REMARK       I    between atoms: N_12  and  C_30 
REMARK    6  A    between atoms: N_13  and  C_23 
REMARK    7  A    between atoms: C_14  and  C_16 
REMARK    8  A    between atoms: CA_21  and  CB_22 
REMARK    9  A    between atoms: CA_21  and  C_31 
REMARK   10  A    between atoms: CB_22  and  CG_29 
REMARK   11  A    between atoms: C_26  and  C_30 
REMARK   12  A    between atoms: CG_29  and  CD_32 
ROOT
ATOM      1  C   UNL d   1      19.567  18.794   9.489  0.00  0.00     0.028 A 
ATOM      2  C   UNL d   1      18.592  19.798   9.427  0.00  0.00     0.030 A 
ATOM      3  C   UNL d   1      20.778  19.016   8.821  0.00  0.00     0.030 A 
ATOM      4  C   UNL d   1      20.021  21.189   8.059  0.00  0.00     0.032 A 
ATOM      5  C   UNL d   1      18.819  20.996   8.738  0.00  0.00     0.019 A 
ATOM      6  C   UNL d   1      21.011  20.202   8.117  0.00  0.00     0.019 A 
ENDROOT
BRANCH   1   7
ATOM      7  N   UNL d   1      19.348  17.543  10.060  0.00  0.00    -0.388 N 
ATOM      8  H   UNL d   1      19.431  16.772   9.393  0.00  0.00     0.159 HD
BRANCH   7   9
ATOM      9  C   UNL d   1      19.905  17.215  11.369  0.00  0.00     0.141 C 
BRANCH   9  10
ATOM     10  C   UNL d   1      19.091  17.849  12.506  0.00  0.00     0.096 C 
ATOM     11  N   UNL d   1      19.520  17.340  13.830  0.00  0.00    -0.278 NA
ATOM     12  C   UNL d   1      18.704  17.709  14.915  0.00  0.00     0.123 A 
ATOM     13  H   UNL d   1      20.506  17.464  14.065  0.00  0.00     0.128 HD
ATOM     14  C   UNL d   1      17.408  18.102  14.790  0.00  0.00     0.153 A 
ATOM     15  C   UNL d   1      19.301  17.768  16.278  0.00  0.00     0.272 A 
ATOM     16  N   UNL d   1      16.854  18.168  13.508  0.00  0.00    -0.371 N 
ATOM     17  N   UNL d   1      16.633  18.480  15.857  0.00  0.00    -0.201 NA
ATOM     18  C   UNL d   1      17.561  17.610  12.348  0.00  0.00     0.142 C 
ATOM     19  H   UNL d   1      15.848  18.037  13.543  0.00  0.00     0.161 HD
ATOM     20  C   UNL d   1      17.176  18.532  17.028  0.00  0.00     0.181 A 
ATOM     21  N   UNL d   1      18.465  18.174  17.269  0.00  0.00    -0.297 N 
ATOM     22  H   UNL d   1      18.868  18.281  18.182  0.00  0.00     0.171 HD
ATOM     23  O   UNL d   1      20.487  17.512  16.477  0.00  0.00    -0.266 OA
BRANCH  20  24
ATOM     24  N   UNL d   1      16.455  18.957  18.094  0.00  0.00    -0.272 NA
ATOM     25  H   UNL d   1      16.351  19.953  18.222  0.00  0.00     0.127 HD
ATOM     26  H   UNL d   1      16.702  18.460  18.945  0.00  0.00     0.127 HD
ENDBRANCH  20  24
ENDBRANCH   9  10
ENDBRANCH   7   9
ENDBRANCH   1   7
BRANCH   4  27
ATOM     27  C   ACE d   0      20.258  22.378   7.201  0.00  0.00     0.252 C 
ATOM     28  O   UNL d   1      20.158  23.513   7.650  0.00  0.00    -0.268 OA
ATOM     29  N   UNL d   1      20.765  22.142   5.947  0.00  0.00    -0.343 N 
ATOM     30  H   UNL d   1      20.816  21.184   5.625  0.00  0.00     0.163 HD
BRANCH  29  31
ATOM     31  CA  UNL d   1      21.104  23.174   4.945  0.00  0.00     0.183 C 
BRANCH  31  32
ATOM     32  CB  UNL d   1      22.545  23.020   4.439  0.00  0.00     0.046 C 
BRANCH  32  33
ATOM     33  CG  UNL d   1      23.479  24.174   4.832  0.00  0.00     0.112 C 
BRANCH  33  34
ATOM     34  CD  UNL d   1      23.951  24.935   3.615  0.00  0.00     0.139 C 
ATOM     35  OE2 UNL d   1      25.104  24.961   3.219  0.00  0.00    -0.650 OA
BRANCH  34  36
ATOM     36  OE1 UNL d   1      22.969  25.648   3.017  0.00  0.00    -0.776 OA
ATOM     37  HE1 UNL d   1      22.893  26.571   3.328  0.00  0.00     0.167 HD
ENDBRANCH  34  36
ENDBRANCH  33  34
ENDBRANCH  32  33
ENDBRANCH  31  32
BRANCH  31  38
ATOM     38  C   UNL d   1      20.086  23.422   3.805  0.00  0.00     0.163 C 
ATOM     39  OXT UNL d   1      20.313  24.222   2.899  0.00  0.00    -0.648 OA
BRANCH  38  40
ATOM     40  O   UNL d   1      18.987  22.648   3.780  0.00  0.00    -0.775 OA
ATOM     41  H   UNL d   1      19.158  21.713   4.053  0.00  0.00     0.167 HD
ENDBRANCH  38  40
ENDBRANCH  31  38
ENDBRANCH  29  31
ENDBRANCH   4  27
TORSDOF 12
ENDMDL
MODEL 2
REMARK VINA RESULT:      -8.4      2.976     11.791
REMARK  12 active torsions:
REMARK  status: ('A' for Active; 'I' for Inactive)
REMARK    1  A    between atoms: O_3  and  C_31 
REMARK    2  A    between atoms: OE1_5  and  CD_32 
REMARK    3  A    between atoms: N_9  and  C_16 
REMARK    4  A    between atoms: N_9  and  C_20 
REMARK    5  A    between atoms: CA_21  and  N_12 
REMARK       I    between atoms: N_12  and  C_30 
REMARK    6  A    between atoms: N_13  and  C_23 
REMARK    7  A    between atoms: C_14  and  C_16 
REMARK    8  A    between atoms: CA_21  and  CB_22 
REMARK    9  A    between atoms: CA_21  and  C_31 
REMARK   10  A    between atoms: CB_22  and  CG_29 
REMARK   11  A    between atoms: C_26  and  C_30 
REMARK   12  A    between atoms: CG_29  and  CD_32 
ROOT
ATOM      1  C   UNL d   1      19.827  20.686   8.166  0.00  0.00     0.028 A 
ATOM      2  C   UNL d   1      18.992  21.623   8.791  0.00  0.00     0.030 A 
ATOM      3  C   UNL d   1      20.296  19.613   8.934  0.00  0.00     0.030 A 
ATOM      4  C   UNL d   1      19.114  20.426  10.889  0.00  0.00     0.032 A 
ATOM      5  C   UNL d   1      18.618  21.488  10.134  0.00  0.00     0.019 A 
ATOM      6  C   UNL d   1      19.941  19.475  10.280  0.00  0.00     0.019 A 
ENDROOT
BRANCH   1   7
ATOM      7  N   UNL d   1      20.321  20.838   6.873  0.00  0.00    -0.388 N 
ATOM      8  H   UNL d   1      19.588  20.973   6.172  0.00  0.00     0.159 HD
BRANCH   7   9
ATOM      9  C   UNL d   1      21.498  21.664   6.619  0.00  0.00     0.141 C 
BRANCH   9  10
ATOM     10  C   UNL d   1      21.207  22.762   5.587  0.00  0.00     0.096 C 
ATOM     11  N   UNL d   1      20.242  22.303   4.561  0.00  0.00    -0.278 NA
ATOM     12  C   UNL d   1      20.066  23.166   3.464  0.00  0.00     0.123 A 
ATOM     13  H   UNL d   1      19.339  21.972   4.905  0.00  0.00     0.128 HD
ATOM     14  C   UNL d   1      20.970  24.109   3.088  0.00  0.00     0.153 A 
ATOM     15  C   UNL d   1      18.780  23.123   2.714  0.00  0.00     0.272 A 
ATOM     16  N   UNL d   1      22.137  24.252   3.846  0.00  0.00    -0.371 N 
ATOM     17  N   UNL d   1      20.771  24.959   2.029  0.00  0.00    -0.201 NA
ATOM     18  C   UNL d   1      22.496  23.266   4.874  0.00  0.00     0.142 C 
ATOM     19  H   UNL d   1      22.891  24.624   3.279  0.00  0.00     0.161 HD
ATOM     20  C   UNL d   1      19.644  24.908   1.400  0.00  0.00     0.181 A 
ATOM     21  N   UNL d   1      18.663  24.015   1.695  0.00  0.00    -0.297 N 
ATOM     22  H   UNL d   1      17.780  24.044   1.220  0.00  0.00     0.171 HD
ATOM     23  O   UNL d   1      17.868  22.362   3.033  0.00  0.00    -0.266 OA
BRANCH  20  24
ATOM     24  N   UNL d   1      19.392  25.772   0.385  0.00  0.00    -0.272 NA
ATOM     25  H   UNL d   1      20.117  25.910  -0.303  0.00  0.00     0.127 HD
ATOM     26  H   UNL d   1      18.972  26.636   0.714  0.00  0.00     0.127 HD
ENDBRANCH  20  24
ENDBRANCH   9  10
ENDBRANCH   7   9
ENDBRANCH   1   7
BRANCH   4  27
ATOM     27  C   ACE d   0      18.861  20.312  12.347  0.00  0.00     0.252 C 
ATOM     28  O   UNL d   1      17.852  20.787  12.854  0.00  0.00    -0.268 OA
ATOM     29  N   UNL d   1      19.711  19.502  13.059  0.00  0.00    -0.343 N 
ATOM     30  H   UNL d   1      20.534  19.145  12.591  0.00  0.00     0.163 HD
BRANCH  29  31
ATOM     31  CA  UNL d   1      19.625  19.222  14.507  0.00  0.00     0.183 C 
BRANCH  31  32
ATOM     32  CB  UNL d   1      18.790  17.965  14.792  0.00  0.00     0.046 C 
BRANCH  32  33
ATOM     33  CG  UNL d   1      17.407  18.248  15.395  0.00  0.00     0.112 C 
BRANCH  33  34
ATOM     34  CD  UNL d   1      17.470  18.316  16.903  0.00  0.00     0.139 C 
ATOM     35  OE2 UNL d   1      16.679  18.927  17.602  0.00  0.00    -0.650 OA
BRANCH  34  36
ATOM     36  OE1 UNL d   1      18.539  17.670  17.422  0.00  0.00    -0.776 OA
ATOM     37  HE1 UNL d   1      18.923  18.094  18.214  0.00  0.00     0.167 HD
ENDBRANCH  34  36
ENDBRANCH  33  34
ENDBRANCH  32  33
ENDBRANCH  31  32
BRANCH  31  38
ATOM     38  C   UNL d   1      20.941  19.272  15.323  0.00  0.00     0.163 C 
ATOM     39  OXT UNL d   1      21.774  20.159  15.151  0.00  0.00    -0.648 OA
BRANCH  38  40
ATOM     40  O   UNL d   1      21.090  18.368  16.308  0.00  0.00    -0.775 OA
ATOM     41  H   UNL d   1      21.115  18.770  17.211  0.00  0.00     0.167 HD
ENDBRANCH  38  40
ENDBRANCH  31  38
ENDBRANCH  29  31
ENDBRANCH   4  27
TORSDOF 12
ENDMDL
MODEL 3
REMARK VINA RESULT:      -8.3      3.660     11.059
REMARK  12 active torsions:
REMARK  status: ('A' for Active; 'I' for Inactive)
REMARK    1  A    between atoms: O_3  and  C_31 
REMARK    2  A    between atoms: OE1_5  and  CD_32 
REMARK    3  A    between atoms: N_9  and  C_16 
REMARK    4  A    between atoms: N_9  and  C_20 
REMARK    5  A    between atoms: CA_21  and  N_12 
REMARK       I    between atoms: N_12  and  C_30 
REMARK    6  A    between atoms: N_13  and  C_23 
REMARK    7  A    between atoms: C_14  and  C_16 
REMARK    8  A    between atoms: CA_21  and  CB_22 
REMARK    9  A    between atoms: CA_21  and  C_31 
REMARK   10  A    between atoms: CB_22  and  CG_29 
REMARK   11  A    between atoms: C_26  and  C_30 
REMARK   12  A    between atoms: CG_29  and  CD_32 
ROOT
ATOM      1  C   UNL d   1      21.462  19.524   8.756  0.00  0.00     0.028 A 
ATOM      2  C   UNL d   1      22.232  20.462   9.458  0.00  0.00     0.030 A 
ATOM      3  C   UNL d   1      20.416  18.893   9.440  0.00  0.00     0.030 A 
ATOM      4  C   UNL d   1      20.929  20.121  11.467  0.00  0.00     0.032 A 
ATOM      5  C   UNL d   1      21.959  20.778  10.795  0.00  0.00     0.019 A 
ATOM      6  C   UNL d   1      20.142  19.190  10.780  0.00  0.00     0.019 A 
ENDROOT
BRANCH   1   7
ATOM      7  N   UNL d   1      21.764  19.092   7.468  0.00  0.00    -0.388 N 
ATOM      8  H   UNL d   1      21.011  18.555   7.032  0.00  0.00     0.159 HD
BRANCH   7   9
ATOM      9  C   UNL d   1      22.437  19.980   6.524  0.00  0.00     0.141 C 
BRANCH   9  10
ATOM     10  C   UNL d   1      21.465  20.998   5.913  0.00  0.00     0.096 C 
ATOM     11  N   UNL d   1      20.764  20.441   4.732  0.00  0.00    -0.278 NA
ATOM     12  C   UNL d   1      20.004  21.360   3.987  0.00  0.00     0.123 A 
ATOM     13  H   UNL d   1      20.236  19.580   4.884  0.00  0.00     0.128 HD
ATOM     14  C   UNL d   1      20.201  22.705   4.014  0.00  0.00     0.153 A 
ATOM     15  C   UNL d   1      18.851  20.860   3.187  0.00  0.00     0.272 A 
ATOM     16  N   UNL d   1      21.202  23.214   4.847  0.00  0.00    -0.371 N 
ATOM     17  N   UNL d   1      19.435  23.590   3.298  0.00  0.00    -0.201 NA
ATOM     18  C   UNL d   1      22.171  22.322   5.498  0.00  0.00     0.142 C 
ATOM     19  H   UNL d   1      21.553  24.097   4.491  0.00  0.00     0.161 HD
ATOM     20  C   UNL d   1      18.436  23.133   2.619  0.00  0.00     0.181 A 
ATOM     21  N   UNL d   1      18.137  21.810   2.528  0.00  0.00    -0.297 N 
ATOM     22  H   UNL d   1      17.319  21.499   2.037  0.00  0.00     0.171 HD
ATOM     23  O   UNL d   1      18.543  19.670   3.168  0.00  0.00    -0.266 OA
BRANCH  20  24
ATOM     24  N   UNL d   1      17.624  23.985   1.946  0.00  0.00    -0.272 NA
ATOM     25  H   UNL d   1      17.402  23.762   0.987  0.00  0.00     0.127 HD
ATOM     26  H   UNL d   1      17.885  24.956   2.090  0.00  0.00     0.127 HD
ENDBRANCH  20  24
ENDBRANCH   9  10
ENDBRANCH   7   9
ENDBRANCH   1   7
BRANCH   4  27
ATOM     27  C   ACE d   0      20.686  20.317  12.918  0.00  0.00     0.252 C 
ATOM     28  O   UNL d   1      19.689  20.904  13.320  0.00  0.00    -0.268 OA
ATOM     29  N   UNL d   1      21.529  19.657  13.779  0.00  0.00    -0.343 N 
ATOM     30  H   UNL d   1      22.342  19.196  13.391  0.00  0.00     0.163 HD
BRANCH  29  31
ATOM     31  CA  UNL d   1      21.449  19.685  15.254  0.00  0.00     0.183 C 
BRANCH  31  32
ATOM     32  CB  UNL d   1      21.039  18.320  15.824  0.00  0.00     0.046 C 
BRANCH  32  33
ATOM     33  CG  UNL d   1      19.792  17.709  15.167  0.00  0.00     0.112 C 
BRANCH  33  34
ATOM     34  CD  UNL d   1      18.525  18.271  15.768  0.00  0.00     0.139 C 
ATOM     35  OE2 UNL d   1      17.612  18.761  15.125  0.00  0.00    -0.650 OA
BRANCH  34  36
ATOM     36  OE1 UNL d   1      18.513  18.234  17.120  0.00  0.00    -0.776 OA
ATOM     37  HE1 UNL d   1      18.584  19.108  17.550  0.00  0.00     0.167 HD
ENDBRANCH  34  36
ENDBRANCH  33  34
ENDBRANCH  32  33
ENDBRANCH  31  32
BRANCH  31  38
ATOM     38  C   UNL d   1      22.632  20.329  16.019  0.00  0.00     0.163 C 
ATOM     39  OXT UNL d   1      23.726  20.504  15.488  0.00  0.00    -0.648 OA
BRANCH  38  40
ATOM     40  O   UNL d   1      22.385  20.793  17.257  0.00  0.00    -0.775 OA
ATOM     41  H   UNL d   1      22.237  21.770  17.289  0.00  0.00     0.167 HD
ENDBRANCH  38  40
ENDBRANCH  31  38
ENDBRANCH  29  31
ENDBRANCH   4  27
TORSDOF 12
ENDMDL
MODEL 4
REMARK VINA RESULT:      -8.3      2.208      3.674
REMARK  12 active torsions:
REMARK  status: ('A' for Active; 'I' for Inactive)
REMARK    1  A    between atoms: O_3  and  C_31 
REMARK    2  A    between atoms: OE1_5  and  CD_32 
REMARK    3  A    between atoms: N_9  and  C_16 
REMARK    4  A    between atoms: N_9  and  C_20 
REMARK    5  A    between atoms: CA_21  and  N_12 
REMARK       I    between atoms: N_12  and  C_30 
REMARK    6  A    between atoms: N_13  and  C_23 
REMARK    7  A    between atoms: C_14  and  C_16 
REMARK    8  A    between atoms: CA_21  and  CB_22 
REMARK    9  A    between atoms: CA_21  and  C_31 
REMARK   10  A    between atoms: CB_22  and  CG_29 
REMARK   11  A    between atoms: C_26  and  C_30 
REMARK   12  A    between atoms: CG_29  and  CD_32 
ROOT
ATOM      1  C   UNL d   1      20.925  21.398   9.058  0.00  0.00     0.028 A 
ATOM      2  C   UNL d   1      19.948  22.255   8.536  0.00  0.00     0.030 A 
ATOM      3  C   UNL d   1      21.720  20.684   8.153  0.00  0.00     0.030 A 
ATOM      4  C   UNL d   1      20.561  21.676   6.270  0.00  0.00     0.032 A 
ATOM      5  C   UNL d   1      19.776  22.414   7.155  0.00  0.00     0.019 A 
ATOM      6  C   UNL d   1      21.550  20.823   6.772  0.00  0.00     0.019 A 
ENDROOT
BRANCH   1   7
ATOM      7  N   UNL d   1      21.056  21.119  10.416  0.00  0.00    -0.388 N 
ATOM      8  H   UNL d   1      20.631  21.827  11.019  0.00  0.00     0.159 HD
BRANCH   7   9
ATOM      9  C   UNL d   1      20.858  19.762  10.918  0.00  0.00     0.141 C 
BRANCH   9  10
ATOM     10  C   UNL d   1      19.933  19.740  12.143  0.00  0.00     0.096 C 
ATOM     11  N   UNL d   1      20.496  18.911  13.235  0.00  0.00    -0.278 NA
ATOM     12  C   UNL d   1      19.633  18.667  14.319  0.00  0.00     0.123 A 
ATOM     13  H   UNL d   1      21.425  19.172  13.568  0.00  0.00     0.128 HD
ATOM     14  C   UNL d   1      18.278  18.763  14.245  0.00  0.00     0.153 A 
ATOM     15  C   UNL d   1      20.221  18.378  15.656  0.00  0.00     0.272 A 
ATOM     16  N   UNL d   1      17.703  19.148  13.030  0.00  0.00    -0.371 N 
ATOM     17  N   UNL d   1      17.453  18.545  15.319  0.00  0.00    -0.201 NA
ATOM     18  C   UNL d   1      18.506  19.221  11.803  0.00  0.00     0.142 C 
ATOM     19  H   UNL d   1      16.761  18.781  12.945  0.00  0.00     0.161 HD
ATOM     20  C   UNL d   1      17.986  18.304  16.470  0.00  0.00     0.181 A 
ATOM     21  N   UNL d   1      19.328  18.197  16.664  0.00  0.00    -0.297 N 
ATOM     22  H   UNL d   1      19.707  18.064  17.583  0.00  0.00     0.171 HD
ATOM     23  O   UNL d   1      21.436  18.355  15.838  0.00  0.00    -0.266 OA
BRANCH  20  24
ATOM     24  N   UNL d   1      17.202  18.141  17.564  0.00  0.00    -0.272 NA
ATOM     25  H   UNL d   1      16.557  18.883  17.793  0.00  0.00     0.127 HD
ATOM     26  H   UNL d   1      17.725  17.793  18.362  0.00  0.00     0.127 HD
ENDBRANCH  20  24
ENDBRANCH   9  10
ENDBRANCH   7   9
ENDBRANCH   1   7
BRANCH   4  27
ATOM     27  C   ACE d   0      20.329  21.702   4.803  0.00  0.00     0.252 C 
ATOM     28  O   UNL d   1      20.322  20.669   4.145  0.00  0.00    -0.268 OA
ATOM     29  N   UNL d   1      19.946  22.904   4.260  0.00  0.00    -0.343 N 
ATOM     30  H   UNL d   1      19.979  23.726   4.850  0.00  0.00     0.163 HD
BRANCH  29  31
ATOM     31  CA  UNL d   1      19.634  23.147   2.837  0.00  0.00     0.183 C 
BRANCH  31  32
ATOM     32  CB  UNL d   1      18.155  22.880   2.528  0.00  0.00     0.046 C 
BRANCH  32  33
ATOM     33  CG  UNL d   1      17.907  21.658   1.631  0.00  0.00     0.112 C 
BRANCH  33  34
ATOM     34  CD  UNL d   1      17.252  20.535   2.403  0.00  0.00     0.139 C 
ATOM     35  OE2 UNL d   1      17.760  19.445   2.602  0.00  0.00    -0.650 OA
BRANCH  34  36
ATOM     36  OE1 UNL d   1      16.000  20.833   2.818  0.00  0.00    -0.776 OA
ATOM     37  HE1 UNL d   1      15.766  21.779   2.754  0.00  0.00     0.167 HD
ENDBRANCH  34  36
ENDBRANCH  33  34
ENDBRANCH  32  33
ENDBRANCH  31  32
BRANCH  31  38
ATOM     38  C   UNL d   1      20.155  24.463   2.207  0.00  0.00     0.163 C 
ATOM     39  OXT UNL d   1      19.433  25.179   1.518  0.00  0.00    -0.648 OA
BRANCH  38  40
ATOM     40  O   UNL d   1      21.400  24.852   2.534  0.00  0.00    -0.775 OA
ATOM     41  H   UNL d   1      21.467  25.239   3.442  0.00  0.00     0.167 HD
ENDBRANCH  38  40
ENDBRANCH  31  38
ENDBRANCH  29  31
ENDBRANCH   4  27
TORSDOF 12
ENDMDL
MODEL 5
REMARK VINA RESULT:      -8.2      7.447     12.866
REMARK  12 active torsions:
REMARK  status: ('A' for Active; 'I' for Inactive)
REMARK    1  A    between atoms: O_3  and  C_31 
REMARK    2  A    between atoms: OE1_5  and  CD_32 
REMARK    3  A    between atoms: N_9  and  C_16 
REMARK    4  A    between atoms: N_9  and  C_20 
REMARK    5  A    between atoms: CA_21  and  N_12 
REMARK       I    between atoms: N_12  and  C_30 
REMARK    6  A    between atoms: N_13  and  C_23 
REMARK    7  A    between atoms: C_14  and  C_16 
REMARK    8  A    between atoms: CA_21  and  CB_22 
REMARK    9  A    between atoms: CA_21  and  C_31 
REMARK   10  A    between atoms: CB_22  and  CG_29 
REMARK   11  A    between atoms: C_26  and  C_30 
REMARK   12  A    between atoms: CG_29  and  CD_32 
ROOT
ATOM      1  C   UNL d   1      17.600  20.903   1.371  0.00  0.00     0.028 A 
ATOM      2  C   UNL d   1      17.913  22.252   1.590  0.00  0.00     0.030 A 
ATOM      3  C   UNL d   1      18.128  19.957   2.259  0.00  0.00     0.030 A 
ATOM      4  C   UNL d   1      19.247  21.693   3.528  0.00  0.00     0.032 A 
ATOM      5  C   UNL d   1      18.711  22.651   2.670  0.00  0.00     0.019 A 
ATOM      6  C   UNL d   1      18.938  20.342   3.333  0.00  0.00     0.019 A 
ENDROOT
BRANCH   1   7
ATOM      7  N   UNL d   1      16.912  20.446   0.251  0.00  0.00    -0.388 N 
ATOM      8  H   UNL d   1      16.452  21.193  -0.276  0.00  0.00     0.159 HD
BRANCH   7   9
ATOM      9  C   UNL d   1      17.496  19.426  -0.616  0.00  0.00     0.141 C 
BRANCH   9  10
ATOM     10  C   UNL d   1      16.558  19.063  -1.775  0.00  0.00     0.096 C 
ATOM     11  N   UNL d   1      15.228  18.633  -1.284  0.00  0.00    -0.278 NA
ATOM     12  C   UNL d   1      14.367  18.091  -2.256  0.00  0.00     0.123 A 
ATOM     13  H   UNL d   1      14.727  19.298  -0.693  0.00  0.00     0.128 HD
ATOM     14  C   UNL d   1      14.792  17.569  -3.438  0.00  0.00     0.153 A 
ATOM     15  C   UNL d   1      12.896  18.169  -2.039  0.00  0.00     0.272 A 
ATOM     16  N   UNL d   1      16.161  17.589  -3.720  0.00  0.00    -0.371 N 
ATOM     17  N   UNL d   1      13.937  17.066  -4.385  0.00  0.00    -0.201 NA
ATOM     18  C   UNL d   1      17.142  17.944  -2.686  0.00  0.00     0.142 C 
ATOM     19  H   UNL d   1      16.410  16.837  -4.354  0.00  0.00     0.161 HD
ATOM     20  C   UNL d   1      12.665  17.152  -4.178  0.00  0.00     0.181 A 
ATOM     21  N   UNL d   1      12.127  17.665  -3.040  0.00  0.00    -0.297 N 
ATOM     22  H   UNL d   1      11.134  17.766  -2.939  0.00  0.00     0.171 HD
ATOM     23  O   UNL d   1      12.416  18.699  -1.040  0.00  0.00    -0.266 OA
BRANCH  20  24
ATOM     24  N   UNL d   1      11.791  16.717  -5.119  0.00  0.00    -0.272 NA
ATOM     25  H   UNL d   1      10.865  16.454  -4.813  0.00  0.00     0.127 HD
ATOM     26  H   UNL d   1      12.215  16.049  -5.755  0.00  0.00     0.127 HD
ENDBRANCH  20  24
ENDBRANCH   9  10
ENDBRANCH   7   9
ENDBRANCH   1   7
BRANCH   4  27
ATOM     27  C   ACE d   0      20.208  22.049   4.603  0.00  0.00     0.252 C 
ATOM     28  O   UNL d   1      20.710  23.165   4.660  0.00  0.00    -0.268 OA
ATOM     29  N   UNL d   1      20.364  21.137   5.618  0.00  0.00    -0.343 N 
ATOM     30  H   UNL d   1      19.934  20.227   5.512  0.00  0.00     0.163 HD
BRANCH  29  31
ATOM     31  CA  UNL d   1      21.239  21.300   6.797  0.00  0.00     0.183 C 
BRANCH  31  32
ATOM     32  CB  UNL d   1      20.549  22.104   7.908  0.00  0.00     0.046 C 
BRANCH  32  33
ATOM     33  CG  UNL d   1      19.036  21.868   8.011  0.00  0.00     0.112 C 
BRANCH  33  34
ATOM     34  CD  UNL d   1      18.692  21.041   9.229  0.00  0.00     0.139 C 
ATOM     35  OE2 UNL d   1      18.677  21.466  10.372  0.00  0.00    -0.650 OA
BRANCH  34  36
ATOM     36  OE1 UNL d   1      18.448  19.743   8.941  0.00  0.00    -0.776 OA
ATOM     37  HE1 UNL d   1      19.217  19.255   8.588  0.00  0.00     0.167 HD
ENDBRANCH  34  36
ENDBRANCH  33  34
ENDBRANCH  32  33
ENDBRANCH  31  32
BRANCH  31  38
ATOM     38  C   UNL d   1      21.965  20.038   7.325  0.00  0.00     0.163 C 
ATOM     39  OXT UNL d   1      23.191  19.975   7.385  0.00  0.00    -0.648 OA
BRANCH  38  40
ATOM     40  O   UNL d   1      21.200  19.049   7.823  0.00  0.00    -0.775 OA
ATOM     41  H   UNL d   1      21.161  18.251   7.241  0.00  0.00     0.167 HD
ENDBRANCH  38  40
ENDBRANCH  31  38
ENDBRANCH  29  31
ENDBRANCH   4  27
TORSDOF 12
ENDMDL
MODEL 6
REMARK VINA RESULT:      -8.1      7.520     12.736
REMARK  12 active torsions:
REMARK  status: ('A' for Active; 'I' for Inactive)
REMARK    1  A    between atoms: O_3  and  C_31 
REMARK    2  A    between atoms: OE1_5  and  CD_32 
REMARK    3  A    between atoms: N_9  and  C_16 
REMARK    4  A    between atoms: N_9  and  C_20 
REMARK    5  A    between atoms: CA_21  and  N_12 
REMARK       I    between atoms: N_12  and  C_30 
REMARK    6  A    between atoms: N_13  and  C_23 
REMARK    7  A    between atoms: C_14  and  C_16 
REMARK    8  A    between atoms: CA_21  and  CB_22 
REMARK    9  A    between atoms: CA_21  and  C_31 
REMARK   10  A    between atoms: CB_22  and  CG_29 
REMARK   11  A    between atoms: C_26  and  C_30 
REMARK   12  A    between atoms: CG_29  and  CD_32 
ROOT
ATOM      1  C   UNL d   1      17.562  21.210   1.256  0.00  0.00     0.028 A 
ATOM      2  C   UNL d   1      17.929  22.557   1.377  0.00  0.00     0.030 A 
ATOM      3  C   UNL d   1      18.087  20.304   2.186  0.00  0.00     0.030 A 
ATOM      4  C   UNL d   1      19.308  22.076   3.304  0.00  0.00     0.032 A 
ATOM      5  C   UNL d   1      18.776  22.996   2.402  0.00  0.00     0.019 A 
ATOM      6  C   UNL d   1      18.945  20.727   3.206  0.00  0.00     0.019 A 
ENDROOT
BRANCH   1   7
ATOM      7  N   UNL d   1      16.820  20.708   0.191  0.00  0.00    -0.388 N 
ATOM      8  H   UNL d   1      16.874  21.287  -0.651  0.00  0.00     0.159 HD
BRANCH   7   9
ATOM      9  C   UNL d   1      16.827  19.279  -0.111  0.00  0.00     0.141 C 
BRANCH   9  10
ATOM     10  C   UNL d   1      16.114  18.977  -1.436  0.00  0.00     0.096 C 
ATOM     11  N   UNL d   1      14.732  18.489  -1.212  0.00  0.00    -0.278 NA
ATOM     12  C   UNL d   1      14.069  17.998  -2.351  0.00  0.00     0.123 A 
ATOM     13  H   UNL d   1      14.117  19.104  -0.677  0.00  0.00     0.128 HD
ATOM     14  C   UNL d   1      14.707  17.565  -3.472  0.00  0.00     0.153 A 
ATOM     15  C   UNL d   1      12.581  18.032  -2.389  0.00  0.00     0.272 A 
ATOM     16  N   UNL d   1      16.103  17.630  -3.510  0.00  0.00    -0.371 N 
ATOM     17  N   UNL d   1      14.044  17.110  -4.583  0.00  0.00    -0.201 NA
ATOM     18  C   UNL d   1      16.880  17.933  -2.301  0.00  0.00     0.142 C 
ATOM     19  H   UNL d   1      16.480  16.927  -4.137  0.00  0.00     0.161 HD
ATOM     20  C   UNL d   1      12.753  17.158  -4.595  0.00  0.00     0.181 A 
ATOM     21  N   UNL d   1      12.011  17.583  -3.538  0.00  0.00    -0.297 N 
ATOM     22  H   UNL d   1      11.013  17.658  -3.605  0.00  0.00     0.171 HD
ATOM     23  O   UNL d   1      11.920  18.485  -1.457  0.00  0.00    -0.266 OA
BRANCH  20  24
ATOM     24  N   UNL d   1      12.067  16.771  -5.699  0.00  0.00    -0.272 NA
ATOM     25  H   UNL d   1      12.262  15.853  -6.073  0.00  0.00     0.127 HD
ATOM     26  H   UNL d   1      12.035  17.501  -6.404  0.00  0.00     0.127 HD
ENDBRANCH  20  24
ENDBRANCH   9  10
ENDBRANCH   7   9
ENDBRANCH   1   7
BRANCH   4  27
ATOM     27  C   ACE d   0      20.316  22.464   4.322  0.00  0.00     0.252 C 
ATOM     28  O   UNL d   1      19.987  22.721   5.474  0.00  0.00    -0.268 OA
ATOM     29  N   UNL d   1      21.636  22.345   3.960  0.00  0.00    -0.343 N 
ATOM     30  H   UNL d   1      21.848  22.139   2.992  0.00  0.00     0.163 HD
BRANCH  29  31
ATOM     31  CA  UNL d   1      22.797  22.644   4.822  0.00  0.00     0.183 C 
BRANCH  31  32
ATOM     32  CB  UNL d   1      23.714  21.423   4.981  0.00  0.00     0.046 C 
BRANCH  32  33
ATOM     33  CG  UNL d   1      22.971  20.100   5.214  0.00  0.00     0.112 C 
BRANCH  33  34
ATOM     34  CD  UNL d   1      22.384  20.040   6.606  0.00  0.00     0.139 C 
ATOM     35  OE2 UNL d   1      21.190  20.050   6.854  0.00  0.00    -0.650 OA
BRANCH  34  36
ATOM     36  OE1 UNL d   1      23.321  20.027   7.580  0.00  0.00    -0.776 OA
ATOM     37  HE1 UNL d   1      24.144  19.556   7.345  0.00  0.00     0.167 HD
ENDBRANCH  34  36
ENDBRANCH  33  34
ENDBRANCH  32  33
ENDBRANCH  31  32
BRANCH  31  38
ATOM     38  C   UNL d   1      23.576  23.953   4.540  0.00  0.00     0.163 C 
ATOM     39  OXT UNL d   1      24.326  24.062   3.573  0.00  0.00    -0.648 OA
BRANCH  38  40
ATOM     40  O   UNL d   1      23.316  25.008   5.333  0.00  0.00    -0.775 OA
ATOM     41  H   UNL d   1      22.415  25.391   5.195  0.00  0.00     0.167 HD
ENDBRANCH  38  40
ENDBRANCH  31  38
ENDBRANCH  29  31
ENDBRANCH   4  27
TORSDOF 12
ENDMDL
MODEL 7
REMARK VINA RESULT:      -8.1      6.964     13.248
REMARK  12 active torsions:
REMARK  status: ('A' for Active; 'I' for Inactive)
REMARK    1  A    between atoms: O_3  and  C_31 
REMARK    2  A    between atoms: OE1_5  and  CD_32 
REMARK    3  A    between atoms: N_9  and  C_16 
REMARK    4  A    between atoms: N_9  and  C_20 
REMARK    5  A    between atoms: CA_21  and  N_12 
REMARK       I    between atoms: N_12  and  C_30 
REMARK    6  A    between atoms: N_13  and  C_23 
REMARK    7  A    between atoms: C_14  and  C_16 
REMARK    8  A    between atoms: CA_21  and  CB_22 
REMARK    9  A    between atoms: CA_21  and  C_31 
REMARK   10  A    between atoms: CB_22  and  CG_29 
REMARK   11  A    between atoms: C_26  and  C_30 
REMARK   12  A    between atoms: CG_29  and  CD_32 
ROOT
ATOM      1  C   UNL d   1      17.511  20.451   1.694  0.00  0.00     0.028 A 
ATOM      2  C   UNL d   1      17.524  21.840   1.509  0.00  0.00     0.030 A 
ATOM      3  C   UNL d   1      18.361  19.913   2.668  0.00  0.00     0.030 A 
ATOM      4  C   UNL d   1      19.200  22.117   3.230  0.00  0.00     0.032 A 
ATOM      5  C   UNL d   1      18.343  22.673   2.282  0.00  0.00     0.019 A 
ATOM      6  C   UNL d   1      19.194  20.733   3.437  0.00  0.00     0.019 A 
ENDROOT
BRANCH   1   7
ATOM      7  N   UNL d   1      16.805  19.573   0.876  0.00  0.00    -0.388 N 
ATOM      8  H   UNL d   1      16.217  18.917   1.395  0.00  0.00     0.159 HD
BRANCH   7   9
ATOM      9  C   UNL d   1      16.167  20.049  -0.349  0.00  0.00     0.141 C 
BRANCH   9  10
ATOM     10  C   UNL d   1      17.021  19.742  -1.588  0.00  0.00     0.096 C 
ATOM     11  N   UNL d   1      16.218  19.100  -2.656  0.00  0.00    -0.278 NA
ATOM     12  C   UNL d   1      16.950  18.601  -3.748  0.00  0.00     0.123 A 
ATOM     13  H   UNL d   1      15.400  19.618  -2.980  0.00  0.00     0.128 HD
ATOM     14  C   UNL d   1      18.274  18.295  -3.698  0.00  0.00     0.153 A 
ATOM     15  C   UNL d   1      16.276  18.480  -5.071  0.00  0.00     0.272 A 
ATOM     16  N   UNL d   1      18.961  18.510  -2.499  0.00  0.00    -0.371 N 
ATOM     17  N   UNL d   1      18.978  17.831  -4.780  0.00  0.00    -0.201 NA
ATOM     18  C   UNL d   1      18.239  18.830  -1.261  0.00  0.00     0.142 C 
ATOM     19  H   UNL d   1      19.755  17.883  -2.422  0.00  0.00     0.161 HD
ATOM     20  C   UNL d   1      18.374  17.743  -5.919  0.00  0.00     0.181 A 
ATOM     21  N   UNL d   1      17.057  18.032  -6.089  0.00  0.00    -0.297 N 
ATOM     22  H   UNL d   1      16.637  18.005  -7.000  0.00  0.00     0.171 HD
ATOM     23  O   UNL d   1      15.104  18.812  -5.234  0.00  0.00    -0.266 OA
BRANCH  20  24
ATOM     24  N   UNL d   1      19.055  17.343  -7.021  0.00  0.00    -0.272 NA
ATOM     25  H   UNL d   1      19.858  16.747  -6.885  0.00  0.00     0.127 HD
ATOM     26  H   UNL d   1      19.218  18.108  -7.668  0.00  0.00     0.127 HD
ENDBRANCH  20  24
ENDBRANCH   9  10
ENDBRANCH   7   9
ENDBRANCH   1   7
BRANCH   4  27
ATOM     27  C   ACE d   0      20.185  22.938   3.977  0.00  0.00     0.252 C 
ATOM     28  O   UNL d   1      20.587  24.007   3.532  0.00  0.00    -0.268 OA
ATOM     29  N   UNL d   1      20.481  22.535   5.256  0.00  0.00    -0.343 N 
ATOM     30  H   UNL d   1      20.128  21.639   5.568  0.00  0.00     0.163 HD
BRANCH  29  31
ATOM     31  CA  UNL d   1      21.405  23.219   6.185  0.00  0.00     0.183 C 
BRANCH  31  32
ATOM     32  CB  UNL d   1      21.133  22.827   7.644  0.00  0.00     0.046 C 
BRANCH  32  33
ATOM     33  CG  UNL d   1      19.709  22.316   7.907  0.00  0.00     0.112 C 
BRANCH  33  34
ATOM     34  CD  UNL d   1      19.709  20.842   8.238  0.00  0.00     0.139 C 
ATOM     35  OE2 UNL d   1      19.020  20.327   9.103  0.00  0.00    -0.650 OA
BRANCH  34  36
ATOM     36  OE1 UNL d   1      20.600  20.131   7.511  0.00  0.00    -0.776 OA
ATOM     37  HE1 UNL d   1      20.305  19.918   6.604  0.00  0.00     0.167 HD
ENDBRANCH  34  36
ENDBRANCH  33  34
ENDBRANCH  32  33
ENDBRANCH  31  32
BRANCH  31  38
ATOM     38  C   UNL d   1      22.912  23.210   5.826  0.00  0.00     0.163 C 
ATOM     39  OXT UNL d   1      23.514  22.164   5.595  0.00  0.00    -0.648 OA
BRANCH  38  40
ATOM     40  O   UNL d   1      23.515  24.401   5.668  0.00  0.00    -0.775 OA
ATOM     41  H   UNL d   1      23.022  25.016   5.072  0.00  0.00     0.167 HD
ENDBRANCH  38  40
ENDBRANCH  31  38
ENDBRANCH  29  31
ENDBRANCH   4  27
TORSDOF 12
ENDMDL
MODEL 8
REMARK VINA RESULT:      -8.0      7.394     12.718
REMARK  12 active torsions:
REMARK  status: ('A' for Active; 'I' for Inactive)
REMARK    1  A    between atoms: O_3  and  C_31 
REMARK    2  A    between atoms: OE1_5  and  CD_32 
REMARK    3  A    between atoms: N_9  and  C_16 
REMARK    4  A    between atoms: N_9  and  C_20 
REMARK    5  A    between atoms: CA_21  and  N_12 
REMARK       I    between atoms: N_12  and  C_30 
REMARK    6  A    between atoms: N_13  and  C_23 
REMARK    7  A    between atoms: C_14  and  C_16 
REMARK    8  A    between atoms: CA_21  and  CB_22 
REMARK    9  A    between atoms: CA_21  and  C_31 
REMARK   10  A    between atoms: CB_22  and  CG_29 
REMARK   11  A    between atoms: C_26  and  C_30 
REMARK   12  A    between atoms: CG_29  and  CD_32 
ROOT
ATOM      1  C   UNL d   1      17.602  20.666   1.893  0.00  0.00     0.028 A 
ATOM      2  C   UNL d   1      17.698  22.032   1.594  0.00  0.00     0.030 A 
ATOM      3  C   UNL d   1      18.449  20.152   2.883  0.00  0.00     0.030 A 
ATOM      4  C   UNL d   1      19.448  22.333   3.235  0.00  0.00     0.032 A 
ATOM      5  C   UNL d   1      18.596  22.867   2.270  0.00  0.00     0.019 A 
ATOM      6  C   UNL d   1      19.360  20.973   3.556  0.00  0.00     0.019 A 
ENDROOT
BRANCH   1   7
ATOM      7  N   UNL d   1      16.812  19.775   1.172  0.00  0.00    -0.388 N 
ATOM      8  H   UNL d   1      15.842  19.741   1.493  0.00  0.00     0.159 HD
BRANCH   7   9
ATOM      9  C   UNL d   1      16.926  19.690  -0.282  0.00  0.00     0.141 C 
BRANCH   9  10
ATOM     10  C   UNL d   1      15.776  18.878  -0.893  0.00  0.00     0.096 C 
ATOM     11  N   UNL d   1      15.825  18.895  -2.374  0.00  0.00    -0.278 NA
ATOM     12  C   UNL d   1      14.704  18.348  -3.025  0.00  0.00     0.123 A 
ATOM     13  H   UNL d   1      16.688  18.556  -2.802  0.00  0.00     0.128 HD
ATOM     14  C   UNL d   1      13.482  18.214  -2.445  0.00  0.00     0.153 A 
ATOM     15  C   UNL d   1      14.869  17.793  -4.397  0.00  0.00     0.272 A 
ATOM     16  N   UNL d   1      13.327  18.620  -1.116  0.00  0.00    -0.371 N 
ATOM     17  N   UNL d   1      12.405  17.657  -3.088  0.00  0.00    -0.201 NA
ATOM     18  C   UNL d   1      14.378  19.384  -0.432  0.00  0.00     0.142 C 
ATOM     19  H   UNL d   1      12.366  18.887  -0.931  0.00  0.00     0.161 HD
ATOM     20  C   UNL d   1      12.575  17.174  -4.274  0.00  0.00     0.181 A 
ATOM     21  N   UNL d   1      13.755  17.242  -4.946  0.00  0.00    -0.297 N 
ATOM     22  H   UNL d   1      13.862  16.807  -5.844  0.00  0.00     0.171 HD
ATOM     23  O   UNL d   1      15.956  17.792  -4.970  0.00  0.00    -0.266 OA
BRANCH  20  24
ATOM     24  N   UNL d   1      11.546  16.565  -4.915  0.00  0.00    -0.272 NA
ATOM     25  H   UNL d   1      11.500  15.558  -4.873  0.00  0.00     0.127 HD
ATOM     26  H   UNL d   1      11.399  16.943  -5.846  0.00  0.00     0.127 HD
ENDBRANCH  20  24
ENDBRANCH   9  10
ENDBRANCH   7   9
ENDBRANCH   1   7
BRANCH   4  27
ATOM     27  C   ACE d   0      20.510  23.144   3.883  0.00  0.00     0.252 C 
ATOM     28  O   UNL d   1      20.862  24.219   3.412  0.00  0.00    -0.268 OA
ATOM     29  N   UNL d   1      20.944  22.721   5.115  0.00  0.00    -0.343 N 
ATOM     30  H   UNL d   1      20.627  21.820   5.450  0.00  0.00     0.163 HD
BRANCH  29  31
ATOM     31  CA  UNL d   1      21.965  23.391   5.947  0.00  0.00     0.183 C 
BRANCH  31  32
ATOM     32  CB  UNL d   1      22.236  22.616   7.244  0.00  0.00     0.046 C 
BRANCH  32  33
ATOM     33  CG  UNL d   1      21.005  21.908   7.826  0.00  0.00     0.112 C 
BRANCH  33  34
ATOM     34  CD  UNL d   1      21.015  20.432   7.499  0.00  0.00     0.139 C 
ATOM     35  OE2 UNL d   1      21.641  19.932   6.580  0.00  0.00    -0.650 OA
BRANCH  34  36
ATOM     36  OE1 UNL d   1      20.207  19.702   8.301  0.00  0.00    -0.776 OA
ATOM     37  HE1 UNL d   1      20.548  18.813   8.517  0.00  0.00     0.167 HD
ENDBRANCH  34  36
ENDBRANCH  33  34
ENDBRANCH  32  33
ENDBRANCH  31  32
BRANCH  31  38
ATOM     38  C   UNL d   1      23.261  23.864   5.242  0.00  0.00     0.163 C 
ATOM     39  OXT UNL d   1      24.056  23.066   4.751  0.00  0.00    -0.648 OA
BRANCH  38  40
ATOM     40  O   UNL d   1      23.431  25.189   5.088  0.00  0.00    -0.775 OA
ATOM     41  H   UNL d   1      22.735  25.613   4.528  0.00  0.00     0.167 HD
ENDBRANCH  38  40
ENDBRANCH  31  38
ENDBRANCH  29  31
ENDBRANCH   4  27
TORSDOF 12
ENDMDL
MODEL 9
REMARK VINA RESULT:      -8.0      4.287     10.359
REMARK  12 active torsions:
REMARK  status: ('A' for Active; 'I' for Inactive)
REMARK    1  A    between atoms: O_3  and  C_31 
REMARK    2  A    between atoms: OE1_5  and  CD_32 
REMARK    3  A    between atoms: N_9  and  C_16 
REMARK    4  A    between atoms: N_9  and  C_20 
REMARK    5  A    between atoms: CA_21  and  N_12 
REMARK       I    between atoms: N_12  and  C_30 
REMARK    6  A    between atoms: N_13  and  C_23 
REMARK    7  A    between atoms: C_14  and  C_16 
REMARK    8  A    between atoms: CA_21  and  CB_22 
REMARK    9  A    between atoms: CA_21  and  C_31 
REMARK   10  A    between atoms: CB_22  and  CG_29 
REMARK   11  A    between atoms: C_26  and  C_30 
REMARK   12  A    between atoms: CG_29  and  CD_32 
ROOT
ATOM      1  C   UNL d   1      19.875  21.573  12.824  0.00  0.00     0.028 A 
ATOM      2  C   UNL d   1      21.084  22.032  13.364  0.00  0.00     0.030 A 
ATOM      3  C   UNL d   1      19.391  20.334  13.263  0.00  0.00     0.030 A 
ATOM      4  C   UNL d   1      21.297  20.050  14.734  0.00  0.00     0.032 A 
ATOM      5  C   UNL d   1      21.783  21.292  14.327  0.00  0.00     0.019 A 
ATOM      6  C   UNL d   1      20.086  19.579  14.214  0.00  0.00     0.019 A 
ENDROOT
BRANCH   1   7
ATOM      7  N   UNL d   1      19.206  22.212  11.784  0.00  0.00    -0.388 N 
ATOM      8  H   UNL d   1      19.633  23.101  11.512  0.00  0.00     0.159 HD
BRANCH   7   9
ATOM      9  C   UNL d   1      18.715  21.453  10.638  0.00  0.00     0.141 C 
BRANCH   9  10
ATOM     10  C   UNL d   1      19.866  20.944   9.759  0.00  0.00     0.096 C 
ATOM     11  N   UNL d   1      19.943  21.686   8.479  0.00  0.00    -0.278 NA
ATOM     12  C   UNL d   1      20.835  21.162   7.526  0.00  0.00     0.123 A 
ATOM     13  H   UNL d   1      20.047  22.699   8.548  0.00  0.00     0.128 HD
ATOM     14  C   UNL d   1      21.275  19.876   7.526  0.00  0.00     0.153 A 
ATOM     15  C   UNL d   1      21.416  22.078   6.505  0.00  0.00     0.272 A 
ATOM     16  N   UNL d   1      20.837  19.022   8.543  0.00  0.00    -0.371 N 
ATOM     17  N   UNL d   1      22.164  19.388   6.602  0.00  0.00    -0.201 NA
ATOM     18  C   UNL d   1      19.754  19.423   9.452  0.00  0.00     0.142 C 
ATOM     19  H   UNL d   1      20.846  18.057   8.233  0.00  0.00     0.161 HD
ATOM     20  C   UNL d   1      22.661  20.203   5.732  0.00  0.00     0.181 A 
ATOM     21  N   UNL d   1      22.304  21.512   5.645  0.00  0.00    -0.297 N 
ATOM     22  H   UNL d   1      22.753  22.127   4.992  0.00  0.00     0.171 HD
ATOM     23  O   UNL d   1      21.143  23.276   6.478  0.00  0.00    -0.266 OA
BRANCH  20  24
ATOM     24  N   UNL d   1      23.586  19.767   4.841  0.00  0.00    -0.272 NA
ATOM     25  H   UNL d   1      23.779  20.354   4.042  0.00  0.00     0.127 HD
ATOM     26  H   UNL d   1      23.458  18.787   4.606  0.00  0.00     0.127 HD
ENDBRANCH  20  24
ENDBRANCH   9  10
ENDBRANCH   7   9
ENDBRANCH   1   7
BRANCH   4  27
ATOM     27  C   ACE d   0      22.065  19.165  15.645  0.00  0.00     0.252 C 
ATOM     28  O   UNL d   1      21.531  18.215  16.205  0.00  0.00    -0.268 OA
ATOM     29  N   UNL d   1      23.425  19.353  15.686  0.00  0.00    -0.343 N 
ATOM     30  H   UNL d   1      23.810  20.160  15.212  0.00  0.00     0.163 HD
BRANCH  29  31
ATOM     31  CA  UNL d   1      24.380  18.568  16.495  0.00  0.00     0.183 C 
BRANCH  31  32
ATOM     32  CB  UNL d   1      25.729  18.407  15.780  0.00  0.00     0.046 C 
BRANCH  32  33
ATOM     33  CG  UNL d   1      25.835  19.170  14.452  0.00  0.00     0.112 C 
BRANCH  33  34
ATOM     34  CD  UNL d   1      26.752  20.365  14.578  0.00  0.00     0.139 C 
ATOM     35  OE2 UNL d   1      26.914  21.008  15.601  0.00  0.00    -0.650 OA
BRANCH  34  36
ATOM     36  OE1 UNL d   1      27.353  20.702  13.414  0.00  0.00    -0.776 OA
ATOM     37  HE1 UNL d   1      26.844  21.326  12.862  0.00  0.00     0.167 HD
ENDBRANCH  34  36
ENDBRANCH  33  34
ENDBRANCH  32  33
ENDBRANCH  31  32
BRANCH  31  38
ATOM     38  C   UNL d   1      24.530  18.948  17.990  0.00  0.00     0.163 C 
ATOM     39  OXT UNL d   1      25.568  19.434  18.431  0.00  0.00    -0.648 OA
BRANCH  38  40
ATOM     40  O   UNL d   1      23.440  18.828  18.768  0.00  0.00    -0.775 OA
ATOM     41  H   UNL d   1      22.858  18.068  18.517  0.00  0.00     0.167 HD
ENDBRANCH  38  40
ENDBRANCH  31  38
ENDBRANCH  29  31
ENDBRANCH   4  27
TORSDOF 12
ENDMDL
