MODEL 1
REMARK VINA RESULT:      -6.1      0.000      0.000
REMARK  3 active torsions:
REMARK  status: ('A' for Active; 'I' for Inactive)
REMARK    1  A    between atoms: C_1  and  O_3 
REMARK    2  A    between atoms: C_1  and  C_4 
REMARK    3  A    between atoms: C_5  and  O_10 
ROOT
ATOM      1  C   UNL d   1       6.965 -10.618 -26.203  0.00  0.00     0.070 A 
ATOM      2  C   UNL d   1       6.198 -11.613 -25.583  0.00  0.00     0.082 A 
ATOM      3  C   UNL d   1       6.522 -12.063 -24.302  0.00  0.00     0.037 A 
ATOM      4  C   UNL d   1       7.621 -11.529 -23.631  0.00  0.00     0.003 A 
ATOM      5  C   UNL d   1       8.398 -10.544 -24.240  0.00  0.00     0.001 A 
ATOM      6  C   UNL d   1       8.071 -10.088 -25.520  0.00  0.00     0.021 A 
ENDROOT
BRANCH   1   7
ATOM      7  C   UNL d   1       6.674 -10.076 -27.555  0.00  0.00     0.178 C 
ATOM      8  O   UNL d   1       5.624 -10.178 -28.160  0.00  0.00    -0.646 OA
BRANCH   7   9
ATOM      9  O   UNL d   1       7.727  -9.431 -28.100  0.00  0.00    -0.773 OA
ATOM     10  H   UNL d   1       8.182 -10.139 -28.609  0.00  0.00     0.167 HD
ENDBRANCH   7   9
ENDBRANCH   1   7
BRANCH   2  11
ATOM     11  O   UNL d   1       5.108 -12.207 -26.162  0.00  0.00    -0.360 OA
ATOM     12  H   UNL d   1       4.948 -13.050 -25.689  0.00  0.00     0.217 HD
ENDBRANCH   2  11
TORSDOF 3
ENDMDL
MODEL 2
REMARK VINA RESULT:      -6.0      1.278      2.296
REMARK  3 active torsions:
REMARK  status: ('A' for Active; 'I' for Inactive)
REMARK    1  A    between atoms: C_1  and  O_3 
REMARK    2  A    between atoms: C_1  and  C_4 
REMARK    3  A    between atoms: C_5  and  O_10 
ROOT
ATOM      1  C   UNL d   1       6.999 -11.499 -26.414  0.00  0.00     0.070 A 
ATOM      2  C   UNL d   1       7.976 -10.780 -25.712  0.00  0.00     0.082 A 
ATOM      3  C   UNL d   1       8.084 -10.899 -24.326  0.00  0.00     0.037 A 
ATOM      4  C   UNL d   1       7.211 -11.731 -23.625  0.00  0.00     0.003 A 
ATOM      5  C   UNL d   1       6.228 -12.445 -24.310  0.00  0.00     0.001 A 
ATOM      6  C   UNL d   1       6.123 -12.331 -25.700  0.00  0.00     0.021 A 
ENDROOT
BRANCH   1   7
ATOM      7  C   UNL d   1       6.832 -11.438 -27.888  0.00  0.00     0.178 C 
ATOM      8  O   UNL d   1       5.797 -11.611 -28.502  0.00  0.00    -0.646 OA
BRANCH   7   9
ATOM      9  O   UNL d   1       7.985 -11.170 -28.537  0.00  0.00    -0.773 OA
ATOM     10  H   UNL d   1       7.721 -11.206 -29.484  0.00  0.00     0.167 HD
ENDBRANCH   7   9
ENDBRANCH   1   7
BRANCH   2  11
ATOM     11  O   UNL d   1       8.871  -9.932 -26.306  0.00  0.00    -0.360 OA
ATOM     12  H   UNL d   1       8.359  -9.312 -26.866  0.00  0.00     0.217 HD
ENDBRANCH   2  11
TORSDOF 3
ENDMDL
MODEL 3
REMARK VINA RESULT:      -6.0      1.707      3.183
REMARK  3 active torsions:
REMARK  status: ('A' for Active; 'I' for Inactive)
REMARK    1  A    between atoms: C_1  and  O_3 
REMARK    2  A    between atoms: C_1  and  C_4 
REMARK    3  A    between atoms: C_5  and  O_10 
ROOT
ATOM      1  C   UNL d   1       7.024 -11.026 -25.220  0.00  0.00     0.070 A 
ATOM      2  C   UNL d   1       8.001 -10.951 -24.218  0.00  0.00     0.082 A 
ATOM      3  C   UNL d   1       8.978  -9.955 -24.253  0.00  0.00     0.037 A 
ATOM      4  C   UNL d   1       8.994  -9.028 -25.295  0.00  0.00     0.003 A 
ATOM      5  C   UNL d   1       8.033  -9.097 -26.304  0.00  0.00     0.001 A 
ATOM      6  C   UNL d   1       7.050 -10.091 -26.266  0.00  0.00     0.021 A 
ENDROOT
BRANCH   1   7
ATOM      7  C   UNL d   1       5.944 -12.045 -25.243  0.00  0.00     0.178 C 
ATOM      8  O   UNL d   1       5.684 -12.838 -24.358  0.00  0.00    -0.646 OA
BRANCH   7   9
ATOM      9  O   UNL d   1       5.234 -12.033 -26.391  0.00  0.00    -0.773 OA
ATOM     10  H   UNL d   1       4.644 -11.255 -26.278  0.00  0.00     0.167 HD
ENDBRANCH   7   9
ENDBRANCH   1   7
BRANCH   2  11
ATOM     11  O   UNL d   1       8.076 -11.818 -23.161  0.00  0.00    -0.360 OA
ATOM     12  H   UNL d   1       7.159 -12.034 -22.893  0.00  0.00     0.217 HD
ENDBRANCH   2  11
TORSDOF 3
ENDMDL
MODEL 4
REMARK VINA RESULT:      -6.0      2.747      4.164
REMARK  3 active torsions:
REMARK  status: ('A' for Active; 'I' for Inactive)
REMARK    1  A    between atoms: C_1  and  O_3 
REMARK    2  A    between atoms: C_1  and  C_4 
REMARK    3  A    between atoms: C_5  and  O_10 
ROOT
ATOM      1  C   UNL d   1       7.408  -9.684 -24.614  0.00  0.00     0.070 A 
ATOM      2  C   UNL d   1       8.017  -9.936 -25.850  0.00  0.00     0.082 A 
ATOM      3  C   UNL d   1       7.499  -9.382 -27.021  0.00  0.00     0.037 A 
ATOM      4  C   UNL d   1       6.361  -8.576 -26.970  0.00  0.00     0.003 A 
ATOM      5  C   UNL d   1       5.740  -8.325 -25.747  0.00  0.00     0.001 A 
ATOM      6  C   UNL d   1       6.262  -8.875 -24.573  0.00  0.00     0.021 A 
ENDROOT
BRANCH   1   7
ATOM      7  C   UNL d   1       7.909 -10.224 -23.324  0.00  0.00     0.178 C 
ATOM      8  O   UNL d   1       8.299  -9.571 -22.375  0.00  0.00    -0.646 OA
BRANCH   7   9
ATOM      9  O   UNL d   1       7.907 -11.573 -23.282  0.00  0.00    -0.773 OA
ATOM     10  H   UNL d   1       8.047 -11.824 -24.223  0.00  0.00     0.167 HD
ENDBRANCH   7   9
ENDBRANCH   1   7
BRANCH   2  11
ATOM     11  O   UNL d   1       9.128 -10.720 -26.007  0.00  0.00    -0.360 OA
ATOM     12  H   UNL d   1       9.729 -10.256 -26.626  0.00  0.00     0.217 HD
ENDBRANCH   2  11
TORSDOF 3
ENDMDL
MODEL 5
REMARK VINA RESULT:      -6.0      1.458      3.045
REMARK  3 active torsions:
REMARK  status: ('A' for Active; 'I' for Inactive)
REMARK    1  A    between atoms: C_1  and  O_3 
REMARK    2  A    between atoms: C_1  and  C_4 
REMARK    3  A    between atoms: C_5  and  O_10 
ROOT
ATOM      1  C   UNL d   1       7.100 -10.958 -24.890  0.00  0.00     0.070 A 
ATOM      2  C   UNL d   1       8.042 -10.496 -25.818  0.00  0.00     0.082 A 
ATOM      3  C   UNL d   1       9.047  -9.611 -25.428  0.00  0.00     0.037 A 
ATOM      4  C   UNL d   1       9.116  -9.170 -24.106  0.00  0.00     0.003 A 
ATOM      5  C   UNL d   1       8.179  -9.615 -23.174  0.00  0.00     0.001 A 
ATOM      6  C   UNL d   1       7.176 -10.508 -23.563  0.00  0.00     0.021 A 
ENDROOT
BRANCH   1   7
ATOM      7  C   UNL d   1       6.012 -11.913 -25.225  0.00  0.00     0.178 C 
ATOM      8  O   UNL d   1       5.390 -11.956 -26.269  0.00  0.00    -0.646 OA
BRANCH   7   9
ATOM      9  O   UNL d   1       5.742 -12.775 -24.222  0.00  0.00    -0.773 OA
ATOM     10  H   UNL d   1       5.107 -12.273 -23.664  0.00  0.00     0.167 HD
ENDBRANCH   7   9
ENDBRANCH   1   7
BRANCH   2  11
ATOM     11  O   UNL d   1       8.053 -10.860 -27.138  0.00  0.00    -0.360 OA
ATOM     12  H   UNL d   1       8.342 -10.080 -27.655  0.00  0.00     0.217 HD
ENDBRANCH   2  11
TORSDOF 3
ENDMDL
MODEL 6
REMARK VINA RESULT:      -5.9      2.131      3.324
REMARK  3 active torsions:
REMARK  status: ('A' for Active; 'I' for Inactive)
REMARK    1  A    between atoms: C_1  and  O_3 
REMARK    2  A    between atoms: C_1  and  C_4 
REMARK    3  A    between atoms: C_5  and  O_10 
ROOT
ATOM      1  C   UNL d   1       8.347 -10.178 -24.880  0.00  0.00     0.070 A 
ATOM      2  C   UNL d   1       7.758 -10.485 -26.114  0.00  0.00     0.082 A 
ATOM      3  C   UNL d   1       6.774 -11.471 -26.204  0.00  0.00     0.037 A 
ATOM      4  C   UNL d   1       6.375 -12.167 -25.063  0.00  0.00     0.003 A 
ATOM      5  C   UNL d   1       6.959 -11.878 -23.830  0.00  0.00     0.001 A 
ATOM      6  C   UNL d   1       7.940 -10.885 -23.738  0.00  0.00     0.021 A 
ENDROOT
BRANCH   1   7
ATOM      7  C   UNL d   1       9.386  -9.132 -24.701  0.00  0.00     0.178 C 
ATOM      8  O   UNL d   1      10.283  -8.869 -25.479  0.00  0.00    -0.646 OA
BRANCH   7   9
ATOM      9  O   UNL d   1       9.261  -8.461 -23.536  0.00  0.00    -0.773 OA
ATOM     10  H   UNL d   1       8.519  -7.842 -23.716  0.00  0.00     0.167 HD
ENDBRANCH   7   9
ENDBRANCH   1   7
BRANCH   2  11
ATOM     11  O   UNL d   1       8.088  -9.868 -27.290  0.00  0.00    -0.360 OA
ATOM     12  H   UNL d   1       7.283  -9.851 -27.848  0.00  0.00     0.217 HD
ENDBRANCH   2  11
TORSDOF 3
ENDMDL
MODEL 7
REMARK VINA RESULT:      -5.9      1.900      3.481
REMARK  3 active torsions:
REMARK  status: ('A' for Active; 'I' for Inactive)
REMARK    1  A    between atoms: C_1  and  O_3 
REMARK    2  A    between atoms: C_1  and  C_4 
REMARK    3  A    between atoms: C_5  and  O_10 
ROOT
ATOM      1  C   UNL d   1       6.205 -10.767 -25.179  0.00  0.00     0.070 A 
ATOM      2  C   UNL d   1       5.832 -10.881 -26.524  0.00  0.00     0.082 A 
ATOM      3  C   UNL d   1       5.694  -9.743 -27.320  0.00  0.00     0.037 A 
ATOM      4  C   UNL d   1       5.918  -8.478 -26.777  0.00  0.00     0.003 A 
ATOM      5  C   UNL d   1       6.282  -8.350 -25.436  0.00  0.00     0.001 A 
ATOM      6  C   UNL d   1       6.427  -9.490 -24.640  0.00  0.00     0.021 A 
ENDROOT
BRANCH   1   7
ATOM      7  C   UNL d   1       6.389 -11.931 -24.273  0.00  0.00     0.178 C 
ATOM      8  O   UNL d   1       5.763 -12.972 -24.306  0.00  0.00    -0.646 OA
BRANCH   7   9
ATOM      9  O   UNL d   1       7.354 -11.731 -23.351  0.00  0.00    -0.773 OA
ATOM     10  H   UNL d   1       7.816 -10.929 -23.683  0.00  0.00     0.167 HD
ENDBRANCH   7   9
ENDBRANCH   1   7
BRANCH   2  11
ATOM     11  O   UNL d   1       5.579 -12.074 -27.146  0.00  0.00    -0.360 OA
ATOM     12  H   UNL d   1       5.187 -12.675 -26.479  0.00  0.00     0.217 HD
ENDBRANCH   2  11
TORSDOF 3
ENDMDL
MODEL 8
REMARK VINA RESULT:      -5.9      0.918      2.648
REMARK  3 active torsions:
REMARK  status: ('A' for Active; 'I' for Inactive)
REMARK    1  A    between atoms: C_1  and  O_3 
REMARK    2  A    between atoms: C_1  and  C_4 
REMARK    3  A    between atoms: C_5  and  O_10 
ROOT
ATOM      1  C   UNL d   1       6.881 -10.532 -25.984  0.00  0.00     0.070 A 
ATOM      2  C   UNL d   1       7.863  -9.603 -26.354  0.00  0.00     0.082 A 
ATOM      3  C   UNL d   1       8.810  -9.165 -25.427  0.00  0.00     0.037 A 
ATOM      4  C   UNL d   1       8.780  -9.643 -24.118  0.00  0.00     0.003 A 
ATOM      5  C   UNL d   1       7.803 -10.561 -23.733  0.00  0.00     0.001 A 
ATOM      6  C   UNL d   1       6.858 -11.006 -24.663  0.00  0.00     0.021 A 
ENDROOT
BRANCH   1   7
ATOM      7  C   UNL d   1       5.852 -11.058 -26.916  0.00  0.00     0.178 C 
ATOM      8  O   UNL d   1       5.598 -10.627 -28.024  0.00  0.00    -0.646 OA
BRANCH   7   9
ATOM      9  O   UNL d   1       5.170 -12.106 -26.408  0.00  0.00    -0.773 OA
ATOM     10  H   UNL d   1       4.275 -12.002 -26.804  0.00  0.00     0.167 HD
ENDBRANCH   7   9
ENDBRANCH   1   7
BRANCH   2  11
ATOM     11  O   UNL d   1       7.970  -9.067 -27.609  0.00  0.00    -0.360 OA
ATOM     12  H   UNL d   1       7.183  -8.501 -27.754  0.00  0.00     0.217 HD
ENDBRANCH   2  11
TORSDOF 3
ENDMDL
MODEL 9
REMARK VINA RESULT:      -5.7      2.186      3.235
REMARK  3 active torsions:
REMARK  status: ('A' for Active; 'I' for Inactive)
REMARK    1  A    between atoms: C_1  and  O_3 
REMARK    2  A    between atoms: C_1  and  C_4 
REMARK    3  A    between atoms: C_5  and  O_10 
ROOT
ATOM      1  C   UNL d   1       6.485 -10.042 -26.318  0.00  0.00     0.070 A 
ATOM      2  C   UNL d   1       7.251 -10.291 -27.464  0.00  0.00     0.082 A 
ATOM      3  C   UNL d   1       7.427 -11.595 -27.929  0.00  0.00     0.037 A 
ATOM      4  C   UNL d   1       6.848 -12.665 -27.248  0.00  0.00     0.003 A 
ATOM      5  C   UNL d   1       6.090 -12.432 -26.100  0.00  0.00     0.001 A 
ATOM      6  C   UNL d   1       5.907 -11.125 -25.638  0.00  0.00     0.021 A 
ENDROOT
BRANCH   1   7
ATOM      7  C   UNL d   1       6.238  -8.683 -25.772  0.00  0.00     0.178 C 
ATOM      8  O   UNL d   1       6.410  -8.329 -24.621  0.00  0.00    -0.646 OA
BRANCH   7   9
ATOM      9  O   UNL d   1       5.770  -7.821 -26.699  0.00  0.00    -0.773 OA
ATOM     10  H   UNL d   1       5.178  -7.234 -26.178  0.00  0.00     0.167 HD
ENDBRANCH   7   9
ENDBRANCH   1   7
BRANCH   2  11
ATOM     11  O   UNL d   1       7.869  -9.312 -28.196  0.00  0.00    -0.360 OA
ATOM     12  H   UNL d   1       7.626  -8.451 -27.796  0.00  0.00     0.217 HD
ENDBRANCH   2  11
TORSDOF 3
ENDMDL
