REMARK  3 active torsions:
REMARK  status: ('A' for Active; 'I' for Inactive)
REMARK    1  A    between atoms: C_1  and  O_3 
REMARK    2  A    between atoms: C_1  and  C_4 
REMARK    3  A    between atoms: C_5  and  O_10 
ROOT
ATOM      1  C   UNL d   1       2.455  -0.010   0.088  0.00  0.00     0.070 A 
ATOM      2  C   UNL d   1       3.183  -1.207   0.104  0.00  0.00     0.082 A 
ATOM      3  C   UNL d   1       4.578  -1.188   0.132  0.00  0.00     0.037 A 
ATOM      4  C   UNL d   1       5.261   0.028   0.135  0.00  0.00     0.003 A 
ATOM      5  C   UNL d   1       4.549   1.227   0.110  0.00  0.00     0.001 A 
ATOM      6  C   UNL d   1       3.151   1.209   0.089  0.00  0.00     0.021 A 
ENDROOT
BRANCH   1   7
ATOM      7  C   UNL d   1       0.971   0.052   0.075  0.00  0.00     0.178 C 
ATOM      8  O   UNL d   1       0.294   1.062   0.062  0.00  0.00    -0.646 OA
BRANCH   7   9
ATOM      9  O   UNL d   1       0.394  -1.168   0.089  0.00  0.00    -0.773 OA
ATOM     10  H   UNL d   1      -0.567  -0.959   0.099  0.00  0.00     0.167 HD
ENDBRANCH   7   9
ENDBRANCH   1   7
BRANCH   2  11
ATOM     11  O   UNL d   1       2.607  -2.449   0.092  0.00  0.00    -0.360 OA
ATOM     12  H   UNL d   1       1.636  -2.321   0.063  0.00  0.00     0.217 HD
ENDBRANCH   2  11
TORSDOF 3
