@<TRIPOS>MOLECULE
SAL
 16 16 0 0 0
SMALL
GASTEIGER

@<TRIPOS>ATOM
      1 C           0.9713    0.0521    0.0749 C.2     1  UNL1        0.3404
      2 O           0.2939    1.0622    0.0618 O.2     1  UNL1       -0.2450
      3 O           0.3942   -1.1680    0.0890 O.3     1  UNL1       -0.4770
      4 C           2.4549   -0.0098    0.0878 C.ar    1  UNL1        0.1001
      5 C           3.1834   -1.2074    0.1044 C.ar    1  UNL1        0.1308
      6 C           4.5776   -1.1877    0.1318 C.ar    1  UNL1       -0.0194
      7 C           5.2605    0.0282    0.1350 C.ar    1  UNL1       -0.0583
      8 C           4.5489    1.2266    0.1103 C.ar    1  UNL1       -0.0608
      9 C           3.1513    1.2090    0.0888 C.ar    1  UNL1       -0.0442
     10 O           2.6075   -2.4492    0.0922 O.3     1  UNL1       -0.5059
     11 H          -0.5673   -0.9589    0.0991 H       1  UNL1        0.2954
     12 H           5.1308   -2.1234    0.1506 H       1  UNL1        0.0654
     13 H           6.3474    0.0385    0.1557 H       1  UNL1        0.0619
     14 H           5.0820    2.1744    0.1090 H       1  UNL1        0.0618
     15 H           2.6085    2.1529    0.0734 H       1  UNL1        0.0627
     16 H           1.6359   -2.3211    0.0632 H       1  UNL1        0.2922
@<TRIPOS>BOND
     1     1     2    2
     2     1     3    1
     3     1     4    1
     4     3    11    1
     5     4     5   ar
     6     4     9   ar
     7     5     6   ar
     8     5    10    1
     9     6     7   ar
    10     6    12    1
    11     7     8   ar
    12     7    13    1
    13     8     9   ar
    14     8    14    1
    15     9    15    1
    16    10    16    1
