@<TRIPOS>MOLECULE
PYR
 10 9 0 0 0
SMALL
GASTEIGER

@<TRIPOS>ATOM
      1 C           0.9375   -0.0130   -0.0855 C.2     1  UNL1        0.3723
      2 O           0.2894   -0.9993   -0.3762 O.2     1  UNL1       -0.2419
      3 O           0.3713    1.1479    0.2568 O.3     1  UNL1       -0.4751
      4 C           2.4740    0.0252   -0.0743 C.2     1  UNL1        0.2360
      5 O           3.0831    1.0443    0.2247 O.2     1  UNL1       -0.2854
      6 C           3.1533   -1.2583   -0.4509 C.3     1  UNL1        0.0052
      7 H          -0.5935    0.9952    0.2118 H       1  UNL1        0.2955
      8 H           2.8760   -2.0464    0.2535 H       1  UNL1        0.0311
      9 H           2.8760   -1.5409   -1.4694 H       1  UNL1        0.0311
     10 H           4.2377   -1.1195   -0.4102 H       1  UNL1        0.0311
@<TRIPOS>BOND
     1     1     2    2
     2     1     3    1
     3     1     4    1
     4     3     7    1
     5     4     5    2
     6     4     6    1
     7     6     8    1
     8     6     9    1
     9     6    10    1
