REMARK  2 active torsions:
REMARK  status: ('A' for Active; 'I' for Inactive)
REMARK    1  A    between atoms: C_1  and  O_3 
REMARK    2  A    between atoms: C_1  and  C_4 
ROOT
ATOM      1  C   UNL d   1       0.938  -0.013  -0.086  0.00  0.00     0.213 C 
ATOM      2  O   UNL d   1       0.289  -0.999  -0.376  0.00  0.00    -0.644 OA
ENDROOT
BRANCH   1   3
ATOM      3  O   UNL d   1       0.371   1.148   0.257  0.00  0.00    -0.771 OA
ATOM      4  H   UNL d   1      -0.594   0.995   0.212  0.00  0.00     0.168 HD
ENDBRANCH   1   3
BRANCH   1   5
ATOM      5  C   UNL d   1       2.474   0.025  -0.074  0.00  0.00     0.218 C 
ATOM      6  O   UNL d   1       3.083   1.044   0.225  0.00  0.00    -0.286 OA
ATOM      7  C   UNL d   1       3.153  -1.258  -0.451  0.00  0.00     0.103 C 
ENDBRANCH   1   5
TORSDOF 2
