MODEL 1
REMARK VINA RESULT:      -6.1      0.000      0.000
REMARK  3 active torsions:
REMARK  status: ('A' for Active; 'I' for Inactive)
REMARK    1  A    between atoms: C_1  and  O_3 
REMARK    2  A    between atoms: C_1  and  C_4 
REMARK    3  A    between atoms: C_5  and  O_10 
ROOT
ATOM      1  C   UNL d   1       6.966 -10.623 -26.204  0.00  0.00     0.070 A 
ATOM      2  C   UNL d   1       6.198 -11.617 -25.581  0.00  0.00     0.082 A 
ATOM      3  C   UNL d   1       6.523 -12.064 -24.301  0.00  0.00     0.037 A 
ATOM      4  C   UNL d   1       7.623 -11.528 -23.632  0.00  0.00     0.003 A 
ATOM      5  C   UNL d   1       8.399 -10.543 -24.243  0.00  0.00     0.001 A 
ATOM      6  C   UNL d   1       8.072 -10.091 -25.524  0.00  0.00     0.021 A 
ENDROOT
BRANCH   1   7
ATOM      7  C   UNL d   1       6.677 -10.084 -27.555  0.00  0.00     0.178 C 
ATOM      8  O   UNL d   1       5.628 -10.188 -28.164  0.00  0.00    -0.646 OA
BRANCH   7   9
ATOM      9  O   UNL d   1       7.727  -9.433 -28.099  0.00  0.00    -0.773 OA
ATOM     10  H   UNL d   1       7.503  -8.488 -27.946  0.00  0.00     0.167 HD
ENDBRANCH   7   9
ENDBRANCH   1   7
BRANCH   2  11
ATOM     11  O   UNL d   1       5.106 -12.209 -26.158  0.00  0.00    -0.360 OA
ATOM     12  H   UNL d   1       4.754 -11.584 -26.828  0.00  0.00     0.217 HD
ENDBRANCH   2  11
TORSDOF 3
ENDMDL
MODEL 2
REMARK VINA RESULT:      -6.0      1.706      3.181
REMARK  3 active torsions:
REMARK  status: ('A' for Active; 'I' for Inactive)
REMARK    1  A    between atoms: C_1  and  O_3 
REMARK    2  A    between atoms: C_1  and  C_4 
REMARK    3  A    between atoms: C_5  and  O_10 
ROOT
ATOM      1  C   UNL d   1       7.025 -11.030 -25.220  0.00  0.00     0.070 A 
ATOM      2  C   UNL d   1       8.001 -10.953 -24.217  0.00  0.00     0.082 A 
ATOM      3  C   UNL d   1       8.976  -9.957 -24.254  0.00  0.00     0.037 A 
ATOM      4  C   UNL d   1       8.992  -9.032 -25.297  0.00  0.00     0.003 A 
ATOM      5  C   UNL d   1       8.030  -9.101 -26.304  0.00  0.00     0.001 A 
ATOM      6  C   UNL d   1       7.050 -10.096 -26.267  0.00  0.00     0.021 A 
ENDROOT
BRANCH   1   7
ATOM      7  C   UNL d   1       5.947 -12.048 -25.245  0.00  0.00     0.178 C 
ATOM      8  O   UNL d   1       5.685 -12.843 -24.361  0.00  0.00    -0.646 OA
BRANCH   7   9
ATOM      9  O   UNL d   1       5.235 -12.035 -26.392  0.00  0.00    -0.773 OA
ATOM     10  H   UNL d   1       4.317 -12.205 -26.083  0.00  0.00     0.167 HD
ENDBRANCH   7   9
ENDBRANCH   1   7
BRANCH   2  11
ATOM     11  O   UNL d   1       8.075 -11.819 -23.159  0.00  0.00    -0.360 OA
ATOM     12  H   UNL d   1       7.744 -12.689 -23.468  0.00  0.00     0.217 HD
ENDBRANCH   2  11
TORSDOF 3
ENDMDL
MODEL 3
REMARK VINA RESULT:      -6.0      2.745      4.154
REMARK  3 active torsions:
REMARK  status: ('A' for Active; 'I' for Inactive)
REMARK    1  A    between atoms: C_1  and  O_3 
REMARK    2  A    between atoms: C_1  and  C_4 
REMARK    3  A    between atoms: C_5  and  O_10 
ROOT
ATOM      1  C   UNL d   1       7.415  -9.695 -24.621  0.00  0.00     0.070 A 
ATOM      2  C   UNL d   1       8.008  -9.958 -25.863  0.00  0.00     0.082 A 
ATOM      3  C   UNL d   1       7.481  -9.404 -27.030  0.00  0.00     0.037 A 
ATOM      4  C   UNL d   1       6.352  -8.589 -26.968  0.00  0.00     0.003 A 
ATOM      5  C   UNL d   1       5.749  -8.324 -25.739  0.00  0.00     0.001 A 
ATOM      6  C   UNL d   1       6.278  -8.874 -24.569  0.00  0.00     0.021 A 
ENDROOT
BRANCH   1   7
ATOM      7  C   UNL d   1       7.924 -10.231 -23.334  0.00  0.00     0.178 C 
ATOM      8  O   UNL d   1       8.294  -9.577 -22.377  0.00  0.00    -0.646 OA
BRANCH   7   9
ATOM      9  O   UNL d   1       7.955 -11.580 -23.301  0.00  0.00    -0.773 OA
ATOM     10  H   UNL d   1       8.551 -11.805 -24.050  0.00  0.00     0.167 HD
ENDBRANCH   7   9
ENDBRANCH   1   7
BRANCH   2  11
ATOM     11  O   UNL d   1       9.112 -10.750 -26.027  0.00  0.00    -0.360 OA
ATOM     12  H   UNL d   1       9.694 -10.311 -26.683  0.00  0.00     0.217 HD
ENDBRANCH   2  11
TORSDOF 3
ENDMDL
MODEL 4
REMARK VINA RESULT:      -6.0      1.086      1.465
REMARK  3 active torsions:
REMARK  status: ('A' for Active; 'I' for Inactive)
REMARK    1  A    between atoms: C_1  and  O_3 
REMARK    2  A    between atoms: C_1  and  C_4 
REMARK    3  A    between atoms: C_5  and  O_10 
ROOT
ATOM      1  C   UNL d   1       6.752 -11.017 -26.236  0.00  0.00     0.070 A 
ATOM      2  C   UNL d   1       6.506 -11.723 -25.051  0.00  0.00     0.082 A 
ATOM      3  C   UNL d   1       7.346 -11.570 -23.949  0.00  0.00     0.037 A 
ATOM      4  C   UNL d   1       8.446 -10.715 -24.022  0.00  0.00     0.003 A 
ATOM      5  C   UNL d   1       8.705 -10.011 -25.197  0.00  0.00     0.001 A 
ATOM      6  C   UNL d   1       7.862 -10.160 -26.301  0.00  0.00     0.021 A 
ENDROOT
BRANCH   1   7
ATOM      7  C   UNL d   1       5.897 -11.112 -27.445  0.00  0.00     0.178 C 
ATOM      8  O   UNL d   1       5.373 -10.184 -28.032  0.00  0.00    -0.646 OA
BRANCH   7   9
ATOM      9  O   UNL d   1       5.726 -12.382 -27.872  0.00  0.00    -0.773 OA
ATOM     10  H   UNL d   1       5.580 -12.876 -27.034  0.00  0.00     0.167 HD
ENDBRANCH   7   9
ENDBRANCH   1   7
BRANCH   2  11
ATOM     11  O   UNL d   1       5.459 -12.590 -24.884  0.00  0.00    -0.360 OA
ATOM     12  H   UNL d   1       5.546 -13.288 -25.567  0.00  0.00     0.217 HD
ENDBRANCH   2  11
TORSDOF 3
ENDMDL
MODEL 5
REMARK VINA RESULT:      -5.9      1.901      3.480
REMARK  3 active torsions:
REMARK  status: ('A' for Active; 'I' for Inactive)
REMARK    1  A    between atoms: C_1  and  O_3 
REMARK    2  A    between atoms: C_1  and  C_4 
REMARK    3  A    between atoms: C_5  and  O_10 
ROOT
ATOM      1  C   UNL d   1       6.204 -10.768 -25.180  0.00  0.00     0.070 A 
ATOM      2  C   UNL d   1       5.830 -10.881 -26.526  0.00  0.00     0.082 A 
ATOM      3  C   UNL d   1       5.692  -9.742 -27.320  0.00  0.00     0.037 A 
ATOM      4  C   UNL d   1       5.918  -8.479 -26.775  0.00  0.00     0.003 A 
ATOM      5  C   UNL d   1       6.285  -8.352 -25.435  0.00  0.00     0.001 A 
ATOM      6  C   UNL d   1       6.427  -9.492 -24.640  0.00  0.00     0.021 A 
ENDROOT
BRANCH   1   7
ATOM      7  C   UNL d   1       6.387 -11.929 -24.275  0.00  0.00     0.178 C 
ATOM      8  O   UNL d   1       5.762 -12.973 -24.307  0.00  0.00    -0.646 OA
BRANCH   7   9
ATOM      9  O   UNL d   1       7.352 -11.731 -23.352  0.00  0.00    -0.773 OA
ATOM     10  H   UNL d   1       8.172 -11.980 -23.835  0.00  0.00     0.167 HD
ENDBRANCH   7   9
ENDBRANCH   1   7
BRANCH   2  11
ATOM     11  O   UNL d   1       5.579 -12.074 -27.149  0.00  0.00    -0.360 OA
ATOM     12  H   UNL d   1       5.439 -12.746 -26.449  0.00  0.00     0.217 HD
ENDBRANCH   2  11
TORSDOF 3
ENDMDL
MODEL 6
REMARK VINA RESULT:      -5.9      1.501      3.052
REMARK  3 active torsions:
REMARK  status: ('A' for Active; 'I' for Inactive)
REMARK    1  A    between atoms: C_1  and  O_3 
REMARK    2  A    between atoms: C_1  and  C_4 
REMARK    3  A    between atoms: C_5  and  O_10 
ROOT
ATOM      1  C   UNL d   1       7.138 -11.076 -24.806  0.00  0.00     0.070 A 
ATOM      2  C   UNL d   1       8.073 -10.664 -25.766  0.00  0.00     0.082 A 
ATOM      3  C   UNL d   1       9.062  -9.738 -25.439  0.00  0.00     0.037 A 
ATOM      4  C   UNL d   1       9.124  -9.207 -24.151  0.00  0.00     0.003 A 
ATOM      5  C   UNL d   1       8.197  -9.603 -23.188  0.00  0.00     0.001 A 
ATOM      6  C   UNL d   1       7.207 -10.535 -23.513  0.00  0.00     0.021 A 
ENDROOT
BRANCH   1   7
ATOM      7  C   UNL d   1       6.067 -12.067 -25.070  0.00  0.00     0.178 C 
ATOM      8  O   UNL d   1       5.760 -13.003 -24.355  0.00  0.00    -0.646 OA
BRANCH   7   9
ATOM      9  O   UNL d   1       5.421 -11.848 -26.235  0.00  0.00    -0.773 OA
ATOM     10  H   UNL d   1       5.356 -12.750 -26.623  0.00  0.00     0.167 HD
ENDBRANCH   7   9
ENDBRANCH   1   7
BRANCH   2  11
ATOM     11  O   UNL d   1       8.090 -11.121 -27.057  0.00  0.00    -0.360 OA
ATOM     12  H   UNL d   1       7.317 -11.714 -27.168  0.00  0.00     0.217 HD
ENDBRANCH   2  11
TORSDOF 3
ENDMDL
MODEL 7
REMARK VINA RESULT:      -5.8      0.945      2.449
REMARK  3 active torsions:
REMARK  status: ('A' for Active; 'I' for Inactive)
REMARK    1  A    between atoms: C_1  and  O_3 
REMARK    2  A    between atoms: C_1  and  C_4 
REMARK    3  A    between atoms: C_5  and  O_10 
ROOT
ATOM      1  C   UNL d   1       6.903 -10.869 -26.402  0.00  0.00     0.070 A 
ATOM      2  C   UNL d   1       7.829  -9.819 -26.464  0.00  0.00     0.082 A 
ATOM      3  C   UNL d   1       8.682  -9.565 -25.390  0.00  0.00     0.037 A 
ATOM      4  C   UNL d   1       8.613 -10.351 -24.241  0.00  0.00     0.003 A 
ATOM      5  C   UNL d   1       7.691 -11.394 -24.164  0.00  0.00     0.001 A 
ATOM      6  C   UNL d   1       6.839 -11.653 -25.240  0.00  0.00     0.021 A 
ENDROOT
BRANCH   1   7
ATOM      7  C   UNL d   1       5.973 -11.214 -27.506  0.00  0.00     0.178 C 
ATOM      8  O   UNL d   1       5.763 -12.328 -27.949  0.00  0.00    -0.646 OA
BRANCH   7   9
ATOM      9  O   UNL d   1       5.342 -10.138 -28.020  0.00  0.00    -0.773 OA
ATOM     10  H   UNL d   1       5.403 -10.290 -28.990  0.00  0.00     0.167 HD
ENDBRANCH   7   9
ENDBRANCH   1   7
BRANCH   2  11
ATOM     11  O   UNL d   1       7.968  -8.989 -27.543  0.00  0.00    -0.360 OA
ATOM     12  H   UNL d   1       7.659  -9.481 -28.333  0.00  0.00     0.217 HD
ENDBRANCH   2  11
TORSDOF 3
ENDMDL
MODEL 8
REMARK VINA RESULT:      -5.8      2.588      3.403
REMARK  3 active torsions:
REMARK  status: ('A' for Active; 'I' for Inactive)
REMARK    1  A    between atoms: C_1  and  O_3 
REMARK    2  A    between atoms: C_1  and  C_4 
REMARK    3  A    between atoms: C_5  and  O_10 
ROOT
ATOM      1  C   UNL d   1       8.006  -9.984 -25.087  0.00  0.00     0.070 A 
ATOM      2  C   UNL d   1       7.395 -10.957 -24.283  0.00  0.00     0.082 A 
ATOM      3  C   UNL d   1       6.329 -11.711 -24.773  0.00  0.00     0.037 A 
ATOM      4  C   UNL d   1       5.857 -11.497 -26.068  0.00  0.00     0.003 A 
ATOM      5  C   UNL d   1       6.452 -10.528 -26.875  0.00  0.00     0.001 A 
ATOM      6  C   UNL d   1       7.523  -9.774 -26.388  0.00  0.00     0.021 A 
ENDROOT
BRANCH   1   7
ATOM      7  C   UNL d   1       9.153  -9.153 -24.646  0.00  0.00     0.178 C 
ATOM      8  O   UNL d   1      10.161  -8.920 -25.286  0.00  0.00    -0.646 OA
BRANCH   7   9
ATOM      9  O   UNL d   1       8.991  -8.647 -23.405  0.00  0.00    -0.773 OA
ATOM     10  H   UNL d   1       9.836  -8.883 -22.961  0.00  0.00     0.167 HD
ENDBRANCH   7   9
ENDBRANCH   1   7
BRANCH   2  11
ATOM     11  O   UNL d   1       7.779 -11.236 -22.999  0.00  0.00    -0.360 OA
ATOM     12  H   UNL d   1       8.111 -10.401 -22.606  0.00  0.00     0.217 HD
ENDBRANCH   2  11
TORSDOF 3
ENDMDL
MODEL 9
REMARK VINA RESULT:      -5.8      1.104      1.513
REMARK  3 active torsions:
REMARK  status: ('A' for Active; 'I' for Inactive)
REMARK    1  A    between atoms: C_1  and  O_3 
REMARK    2  A    between atoms: C_1  and  C_4 
REMARK    3  A    between atoms: C_5  and  O_10 
ROOT
ATOM      1  C   UNL d   1       6.796 -10.227 -26.097  0.00  0.00     0.070 A 
ATOM      2  C   UNL d   1       6.066 -11.352 -26.505  0.00  0.00     0.082 A 
ATOM      3  C   UNL d   1       5.849 -12.411 -25.624  0.00  0.00     0.037 A 
ATOM      4  C   UNL d   1       6.365 -12.361 -24.330  0.00  0.00     0.003 A 
ATOM      5  C   UNL d   1       7.098 -11.250 -23.914  0.00  0.00     0.001 A 
ATOM      6  C   UNL d   1       7.313 -10.186 -24.793  0.00  0.00     0.021 A 
ENDROOT
BRANCH   1   7
ATOM      7  C   UNL d   1       7.056  -9.054 -26.967  0.00  0.00     0.178 C 
ATOM      8  O   UNL d   1       6.731  -7.903 -26.741  0.00  0.00    -0.646 OA
BRANCH   7   9
ATOM      9  O   UNL d   1       7.715  -9.374 -28.101  0.00  0.00    -0.773 OA
ATOM     10  H   UNL d   1       7.227  -8.867 -28.788  0.00  0.00     0.167 HD
ENDBRANCH   7   9
ENDBRANCH   1   7
BRANCH   2  11
ATOM     11  O   UNL d   1       5.527 -11.498 -27.755  0.00  0.00    -0.360 OA
ATOM     12  H   UNL d   1       5.291 -10.603 -28.078  0.00  0.00     0.217 HD
ENDBRANCH   2  11
TORSDOF 3
ENDMDL
