@<TRIPOS>MOLECULE
SAL
 16 16 0 0 0
SMALL
GASTEIGER

@<TRIPOS>ATOM
      1 C           1.0859    0.0410   -0.0604 C.2     1  UNL1        0.3404
      2 O           0.4080    1.0524   -0.0735 O.2     1  UNL1       -0.2450
      3 O           0.5061   -1.1777   -0.0481 O.3     1  UNL1       -0.4770
      4 C           2.5677   -0.0220   -0.0477 C.ar    1  UNL1        0.1001
      5 C           3.2969   -1.2192   -0.0317 C.ar    1  UNL1        0.1308
      6 C           4.6912   -1.1978   -0.0065 C.ar    1  UNL1       -0.0194
      7 C           5.3722    0.0192   -0.0025 C.ar    1  UNL1       -0.0583
      8 C           4.6593    1.2169   -0.0253 C.ar    1  UNL1       -0.0608
      9 C           3.2623    1.1975   -0.0468 C.ar    1  UNL1       -0.0442
     10 O           2.7213   -2.4609   -0.0413 O.3     1  UNL1       -0.5059
     11 H          -0.4542   -0.9637   -0.0444 H       1  UNL1        0.2954
     12 H           5.2459   -2.1326    0.0104 H       1  UNL1        0.0654
     13 H           6.4593    0.0314    0.0176 H       1  UNL1        0.0619
     14 H           5.1904    2.1659   -0.0248 H       1  UNL1        0.0618
     15 H           2.7178    2.1401   -0.0614 H       1  UNL1        0.0627
     16 H           1.7494   -2.3330   -0.0666 H       1  UNL1        0.2922
@<TRIPOS>BOND
     1     1     2    2
     2     1     3    1
     3     1     4    1
     4     3    11    1
     5     4     5   ar
     6     4     9   ar
     7     5     6   ar
     8     5    10    1
     9     6     7   ar
    10     6    12    1
    11     7     8   ar
    12     7    13    1
    13     8     9   ar
    14     8    14    1
    15     9    15    1
    16    10    16    1
