REMARK  20 active torsions:
REMARK  status: ('A' for Active; 'I' for Inactive)
REMARK    1  A    between atoms: P_1  and  O_4 
REMARK    2  A    between atoms: P_1  and  O_23 
REMARK    3  A    between atoms: P_1  and  O_3 
REMARK    4  A    between atoms: O_4  and  C_5 
REMARK    5  A    between atoms: C_5  and  C_6 
REMARK    6  A    between atoms: C_8  and  O_9 
REMARK    7  A    between atoms: C_10  and  O_11 
REMARK    8  A    between atoms: O_11  and  P_45 
REMARK    9  A    between atoms: C_12  and  N_13 
REMARK   10  A    between atoms: C_17  and  N_18 
REMARK   11  A    between atoms: P_24  and  O_23 
REMARK   12  A    between atoms: P_24  and  O_27 
REMARK   13  A    between atoms: O_27  and  C_28 
REMARK   14  A    between atoms: C_28  and  C_29 
REMARK   15  A    between atoms: C_31  and  O_32 
REMARK   16  A    between atoms: C_33  and  O_34 
REMARK   17  A    between atoms: C_35  and  N_36 
REMARK   18  A    between atoms: C_38  and  C_39 
REMARK       I    between atoms: C_39  and  N_41 
REMARK   19  A    between atoms: P_45  and  O_47 
REMARK   20  A    between atoms: P_45  and  O_48 
ROOT
ATOM      1  P   UNL d   1       6.051   0.154   2.153  0.00  0.00     0.402 P 
ATOM      2  O   UNL d   1       6.253   1.517   2.862  0.00  0.00    -0.631 OA
ENDROOT
BRANCH   1   3
ATOM      3  O   UNL d   1       7.550  -0.482   2.738  0.00  0.00    -0.294 OA
BRANCH   3   4
ATOM      4  C   UNL d   1       7.845  -1.835   2.400  0.00  0.00     0.215 C 
BRANCH   4   5
ATOM      5  C   UNL d   1       6.818  -2.844   2.894  0.00  0.00     0.180 C 
ATOM      6  O   UNL d   1       5.541  -2.566   2.324  0.00  0.00    -0.353 OA
ATOM      7  C   UNL d   1       5.098  -3.713   1.594  0.00  0.00     0.263 C 
ATOM      8  C   UNL d   1       6.241  -4.735   1.486  0.00  0.00     0.214 C 
ATOM      9  C   UNL d   1       7.140  -4.304   2.644  0.00  0.00     0.183 C 
BRANCH   7  10
ATOM     10  N   UNL d   1       4.503  -3.270   0.349  0.00  0.00    -0.294 N 
ATOM     11  C   UNL d   1       3.939  -4.037  -0.640  0.00  0.00     0.214 A 
ATOM     12  N   UNL d   1       3.608  -3.317  -1.694  0.00  0.00    -0.236 NA
ATOM     13  C   UNL d   1       3.995  -2.032  -1.382  0.00  0.00     0.144 A 
ATOM     14  C   UNL d   1       3.929  -0.820  -2.088  0.00  0.00     0.135 A 
ATOM     15  C   UNL d   1       4.577  -1.986  -0.128  0.00  0.00     0.166 A 
ATOM     16  N   UNL d   1       4.479   0.284  -1.529  0.00  0.00    -0.228 NA
ATOM     17  C   UNL d   1       5.029   0.171  -0.299  0.00  0.00     0.237 A 
ATOM     18  N   UNL d   1       5.117  -0.923   0.483  0.00  0.00    -0.222 NA
BRANCH  14  19
ATOM     19  N   UNL d   1       3.340  -0.699  -3.341  0.00  0.00    -0.285 NA
ATOM     20  H   UNL d   1       3.256  -1.584  -3.830  0.00  0.00     0.125 HD
ATOM     21  H   UNL d   1       3.683   0.102  -3.853  0.00  0.00     0.125 HD
ENDBRANCH  14  19
ENDBRANCH   7  10
BRANCH   8  22
ATOM     22  O   UNL d   1       5.711  -6.034   1.745  0.00  0.00    -0.284 OA
BRANCH  22  23
ATOM     23  P   UNL d   1       4.790  -6.436   2.976  0.00  0.00     0.391 P 
ATOM     24  O   UNL d   1       5.348  -7.495   3.866  0.00  0.00    -0.632 OA
BRANCH  23  25
ATOM     25  O   UNL d   1       4.381  -5.138   3.799  0.00  0.00    -0.307 OA
ATOM     26  H   UNL d   1       4.474  -5.316   4.755  0.00  0.00     0.222 HD
ENDBRANCH  23  25
BRANCH  23  27
ATOM     27  O   UNL d   1       3.399  -6.932   2.369  0.00  0.00    -0.307 OA
ATOM     28  H   UNL d   1       3.191  -7.823   2.705  0.00  0.00     0.222 HD
ENDBRANCH  23  27
ENDBRANCH  22  23
ENDBRANCH   8  22
BRANCH   9  29
ATOM     29  O   UNL d   1       6.804  -5.032   3.853  0.00  0.00    -0.390 OA
ATOM     30  H   UNL d   1       5.835  -5.002   3.949  0.00  0.00     0.210 HD
ENDBRANCH   9  29
ENDBRANCH   4   5
ENDBRANCH   3   4
ENDBRANCH   1   3
BRANCH   1  31
ATOM     31  O   UNL d   1       4.553   0.791   1.568  0.00  0.00    -0.188 OA
BRANCH  31  32
ATOM     32  P   UNL d   1       3.647   1.343   2.934  0.00  0.00     0.417 P 
ATOM     33  O   UNL d   1       4.061   2.817   3.103  0.00  0.00    -0.624 OA
ATOM     34  O   UNL d   1       2.445   1.657   2.010  0.00  0.00    -0.624 OA
BRANCH  32  35
ATOM     35  O   UNL d   1       4.991   0.993   3.966  0.00  0.00    -0.287 OA
BRANCH  35  36
ATOM     36  C   UNL d   1       4.523   0.322   5.151  0.00  0.00     0.216 C 
BRANCH  36  37
ATOM     37  C   UNL d   1       3.514   1.145   5.944  0.00  0.00     0.180 C 
ATOM     38  O   UNL d   1       3.115   0.400   7.120  0.00  0.00    -0.353 OA
ATOM     39  C   UNL d   1       3.483   1.198   8.254  0.00  0.00     0.259 C 
ATOM     40  C   UNL d   1       4.552   2.192   7.816  0.00  0.00     0.198 C 
ATOM     41  C   UNL d   1       4.036   2.501   6.426  0.00  0.00     0.182 C 
BRANCH  39  42
ATOM     42  N   UNL d   1       3.975   0.343   9.351  0.00  0.00    -0.336 N 
ATOM     43  C   UNL d   1       3.327   0.364  10.539  0.00  0.00     0.110 A 
ATOM     44  C   UNL d   1       3.722  -0.465  11.584  0.00  0.00     0.047 A 
ATOM     45  C   UNL d   1       4.817  -1.303  11.403  0.00  0.00     0.020 A 
ATOM     46  C   UNL d   1       5.490  -1.293  10.182  0.00  0.00     0.018 A 
ATOM     47  C   UNL d   1       5.051  -0.459   9.164  0.00  0.00     0.093 A 
BRANCH  44  48
ATOM     48  C   UNL d   1       2.917  -0.394  12.827  0.00  0.00     0.250 C 
ATOM     49  O   UNL d   1       2.356   0.653  13.131  0.00  0.00    -0.268 OA
ATOM     50  N   UNL d   1       2.804  -1.504  13.610  0.00  0.00    -0.366 N 
ATOM     51  H   UNL d   1       3.230  -2.403  13.439  0.00  0.00     0.159 HD
ATOM     52  H   UNL d   1       2.255  -1.414  14.458  0.00  0.00     0.159 HD
ENDBRANCH  44  48
ENDBRANCH  39  42
BRANCH  40  53
ATOM     53  O   UNL d   1       4.606   3.320   8.687  0.00  0.00    -0.388 OA
ATOM     54  H   UNL d   1       4.327   4.097   8.159  0.00  0.00     0.210 HD
ENDBRANCH  40  53
BRANCH  41  55
ATOM     55  O   UNL d   1       2.935   3.416   6.591  0.00  0.00    -0.390 OA
ATOM     56  H   UNL d   1       2.516   3.548   5.716  0.00  0.00     0.210 HD
ENDBRANCH  41  55
ENDBRANCH  36  37
ENDBRANCH  35  36
ENDBRANCH  32  35
ENDBRANCH  31  32
ENDBRANCH   1  31
BRANCH   1  57
ATOM     57  O   UNL d   1       6.751   0.466   0.691  0.00  0.00    -0.307 OA
ATOM     58  H   UNL d   1       6.922   1.421   0.697  0.00  0.00     0.222 HD
ENDBRANCH   1  57
TORSDOF 20
