MODEL 1
REMARK VINA RESULT:      -7.8      0.000      0.000
REMARK  10 active torsions:
REMARK  status: ('A' for Active; 'I' for Inactive)
REMARK    1  A    between atoms: O_4  and  C_21 
REMARK    2  A    between atoms: O_4  and  C_26 
REMARK    3  A    between atoms: O_5  and  C_22 
REMARK    4  A    between atoms: O_8  and  N_12 
REMARK    5  A    between atoms: CA_16  and  N_11 
REMARK       I    between atoms: N_11  and  C_23 
REMARK    6  A    between atoms: N_14  and  C_29 
REMARK    7  A    between atoms: CA_18  and  C_22 
REMARK    8  A    between atoms: C_19  and  C_21 
REMARK    9  A    between atoms: C_23  and  C_24 
REMARK   10  A    between atoms: C_24  and  C_25 
ROOT
ATOM      1  S   UNL d   1      39.807  -7.241  -4.107  0.00  0.00    -0.136 SA
ATOM      2  O   UNL d   1      37.192  -5.452  -1.438  0.00  0.00    -0.271 OA
ATOM      3  N   UNL d   1      38.707  -7.202  -1.685  0.00  0.00    -0.293 N 
ATOM      4  C   UNL d   1      38.643  -7.981  -2.920  0.00  0.00     0.187 C 
ATOM      5  CA  UNL d   1      37.138  -7.532  -2.991  0.00  0.00     0.211 C 
ATOM      6  C   UNL d   1      37.596  -6.459  -1.956  0.00  0.00     0.251 C 
ATOM      7  CA  UNL d   1      39.878  -6.867  -1.039  0.00  0.00     0.117 C 
ATOM      8  C   UNL d   1      41.092  -7.035  -1.642  0.00  0.00    -0.013 C 
ATOM      9  C   UNL d   1      41.261  -7.556  -3.053  0.00  0.00     0.115 C 
ENDROOT
BRANCH   5  10
ATOM     10  N   UNL d   1      36.560  -7.234  -4.349  0.00  0.00    -0.339 N 
ATOM     11  C   UNL d   1      35.635  -8.155  -4.837  0.00  0.00     0.275 C 
ATOM     12  O   UNL d   1      35.335  -9.142  -4.163  0.00  0.00    -0.266 OA
ATOM     13  H   UNL d   1      36.655  -6.338  -4.816  0.00  0.00     0.163 HD
BRANCH  11  14
ATOM     14  C   UNL d   1      34.978  -8.003  -6.213  0.00  0.00     0.180 C 
ATOM     15  N   UNL d   1      33.771  -8.304  -6.587  0.00  0.00    -0.126 NA
BRANCH  15  16
ATOM     16  O   UNL d   1      32.914  -8.834  -5.621  0.00  0.00    -0.261 OA
ATOM     17  C   UNL d   1      31.760  -9.319  -6.331  0.00  0.00     0.240 C 
ENDBRANCH  15  16
BRANCH  14  18
ATOM     18  C   UNL d   1      35.850  -7.570  -7.317  0.00  0.00     0.102 A 
ATOM     19  N   UNL d   1      37.227  -7.473  -7.167  0.00  0.00    -0.222 NA
ATOM     20  C   UNL d   1      37.794  -7.217  -8.319  0.00  0.00     0.164 A 
ATOM     21  S   UNL d   1      36.721  -6.978  -9.636  0.00  0.00    -0.062 SA
ATOM     22  C   UNL d   1      35.397  -7.286  -8.597  0.00  0.00     0.087 A 
BRANCH  20  23
ATOM     23  N   UNL d   1      39.121  -7.141  -8.476  0.00  0.00    -0.378 N 
ATOM     24  H   UNL d   1      39.671  -6.628  -7.800  0.00  0.00     0.158 HD
ATOM     25  H   UNL d   1      39.572  -7.953  -8.881  0.00  0.00     0.158 HD
ENDBRANCH  20  23
ENDBRANCH  14  18
ENDBRANCH  11  14
ENDBRANCH   5  10
BRANCH   7  26
ATOM     26  C   UNL d   1      39.790  -6.436   0.416  0.00  0.00     0.194 C 
ATOM     27  OXT UNL d   1      39.582  -7.215   1.336  0.00  0.00    -0.645 OA
BRANCH  26  28
ATOM     28  O   UNL d   1      39.803  -5.108   0.618  0.00  0.00    -0.772 OA
ATOM     29  H   UNL d   1      40.468  -4.607   0.098  0.00  0.00     0.167 HD
ENDBRANCH  26  28
ENDBRANCH   7  26
BRANCH   8  30
ATOM     30  C   UNL d   1      42.416  -6.650  -0.998  0.00  0.00     0.216 C 
BRANCH  30  31
ATOM     31  O   UNL d   1      42.906  -7.725  -0.183  0.00  0.00    -0.317 OA
BRANCH  31  32
ATOM     32  C   UNL d   1      44.225  -7.683   0.140  0.00  0.00     0.255 C 
ATOM     33  O   UNL d   1      44.695  -7.923   1.242  0.00  0.00    -0.266 OA
ATOM     34  C   UNL d   1      45.036  -7.314  -1.064  0.00  0.00     0.126 C 
ENDBRANCH  31  32
ENDBRANCH  30  31
ENDBRANCH   8  30
TORSDOF 10
ENDMDL
MODEL 2
REMARK VINA RESULT:      -7.6     15.440     18.342
REMARK  10 active torsions:
REMARK  status: ('A' for Active; 'I' for Inactive)
REMARK    1  A    between atoms: O_4  and  C_21 
REMARK    2  A    between atoms: O_4  and  C_26 
REMARK    3  A    between atoms: O_5  and  C_22 
REMARK    4  A    between atoms: O_8  and  N_12 
REMARK    5  A    between atoms: CA_16  and  N_11 
REMARK       I    between atoms: N_11  and  C_23 
REMARK    6  A    between atoms: N_14  and  C_29 
REMARK    7  A    between atoms: CA_18  and  C_22 
REMARK    8  A    between atoms: C_19  and  C_21 
REMARK    9  A    between atoms: C_23  and  C_24 
REMARK   10  A    between atoms: C_24  and  C_25 
ROOT
ATOM      1  S   UNL d   1      41.185 -12.520  13.444  0.00  0.00    -0.136 SA
ATOM      2  O   UNL d   1      37.849 -12.444  15.901  0.00  0.00    -0.271 OA
ATOM      3  N   UNL d   1      39.632 -13.770  15.206  0.00  0.00    -0.293 N 
ATOM      4  C   UNL d   1      39.935 -13.800  13.777  0.00  0.00     0.187 C 
ATOM      5  CA  UNL d   1      38.424 -13.422  13.565  0.00  0.00     0.211 C 
ATOM      6  C   UNL d   1      38.497 -13.027  15.072  0.00  0.00     0.251 C 
ATOM      7  CA  UNL d   1      40.586 -13.784  16.202  0.00  0.00     0.117 C 
ATOM      8  C   UNL d   1      41.907 -13.582  15.919  0.00  0.00    -0.013 C 
ATOM      9  C   UNL d   1      42.431 -13.293  14.529  0.00  0.00     0.115 C 
ENDROOT
BRANCH   5  10
ATOM     10  N   UNL d   1      38.089 -12.481  12.437  0.00  0.00    -0.339 N 
ATOM     11  C   UNL d   1      36.742 -12.396  12.089  0.00  0.00     0.275 C 
ATOM     12  O   UNL d   1      35.907 -13.070  12.695  0.00  0.00    -0.266 OA
ATOM     13  H   UNL d   1      38.736 -11.791  12.071  0.00  0.00     0.163 HD
BRANCH  11  14
ATOM     14  C   UNL d   1      36.248 -11.503  10.947  0.00  0.00     0.180 C 
ATOM     15  N   UNL d   1      35.483 -11.802   9.940  0.00  0.00    -0.126 NA
BRANCH  15  16
ATOM     16  O   UNL d   1      35.014 -13.113   9.858  0.00  0.00    -0.261 OA
ATOM     17  C   UNL d   1      35.815 -13.764   8.854  0.00  0.00     0.240 C 
ENDBRANCH  15  16
BRANCH  14  18
ATOM     18  C   UNL d   1      36.797 -10.139  10.891  0.00  0.00     0.102 A 
ATOM     19  N   UNL d   1      37.488  -9.583  11.960  0.00  0.00    -0.222 NA
ATOM     20  C   UNL d   1      38.005  -8.430  11.618  0.00  0.00     0.164 A 
ATOM     21  S   UNL d   1      37.622  -7.885  10.037  0.00  0.00    -0.062 SA
ATOM     22  C   UNL d   1      36.734  -9.323   9.770  0.00  0.00     0.087 A 
BRANCH  20  23
ATOM     23  N   UNL d   1      38.781  -7.709  12.437  0.00  0.00    -0.378 N 
ATOM     24  H   UNL d   1      38.509  -7.597  13.405  0.00  0.00     0.158 HD
ATOM     25  H   UNL d   1      39.778  -7.754  12.265  0.00  0.00     0.158 HD
ENDBRANCH  20  23
ENDBRANCH  14  18
ENDBRANCH  11  14
ENDBRANCH   5  10
BRANCH   7  26
ATOM     26  C   UNL d   1      40.145 -14.170  17.604  0.00  0.00     0.194 C 
ATOM     27  OXT UNL d   1      39.696 -15.273  17.887  0.00  0.00    -0.645 OA
BRANCH  26  28
ATOM     28  O   UNL d   1      40.136 -13.165  18.495  0.00  0.00    -0.772 OA
ATOM     29  H   UNL d   1      40.679 -13.309  19.301  0.00  0.00     0.167 HD
ENDBRANCH  26  28
ENDBRANCH   7  26
BRANCH   8  30
ATOM     30  C   UNL d   1      43.002 -13.548  16.975  0.00  0.00     0.216 C 
BRANCH  30  31
ATOM     31  O   UNL d   1      43.083 -12.243  17.569  0.00  0.00    -0.317 OA
BRANCH  31  32
ATOM     32  C   UNL d   1      44.281 -11.611  17.470  0.00  0.00     0.255 C 
ATOM     33  O   UNL d   1      44.847 -11.319  16.427  0.00  0.00    -0.266 OA
ATOM     34  C   UNL d   1      44.811 -11.300  18.836  0.00  0.00     0.126 C 
ENDBRANCH  31  32
ENDBRANCH  30  31
ENDBRANCH   8  30
TORSDOF 10
ENDMDL
MODEL 3
REMARK VINA RESULT:      -7.3     14.335     17.203
REMARK  10 active torsions:
REMARK  status: ('A' for Active; 'I' for Inactive)
REMARK    1  A    between atoms: O_4  and  C_21 
REMARK    2  A    between atoms: O_4  and  C_26 
REMARK    3  A    between atoms: O_5  and  C_22 
REMARK    4  A    between atoms: O_8  and  N_12 
REMARK    5  A    between atoms: CA_16  and  N_11 
REMARK       I    between atoms: N_11  and  C_23 
REMARK    6  A    between atoms: N_14  and  C_29 
REMARK    7  A    between atoms: CA_18  and  C_22 
REMARK    8  A    between atoms: C_19  and  C_21 
REMARK    9  A    between atoms: C_23  and  C_24 
REMARK   10  A    between atoms: C_24  and  C_25 
ROOT
ATOM      1  S   UNL d   1      37.168 -14.058  12.971  0.00  0.00    -0.136 SA
ATOM      2  O   UNL d   1      40.851 -12.166  13.119  0.00  0.00    -0.271 OA
ATOM      3  N   UNL d   1      38.970 -12.700  14.381  0.00  0.00    -0.293 N 
ATOM      4  C   UNL d   1      37.661 -12.496  13.763  0.00  0.00     0.187 C 
ATOM      5  CA  UNL d   1      38.377 -11.416  12.872  0.00  0.00     0.211 C 
ATOM      6  C   UNL d   1      39.674 -12.134  13.359  0.00  0.00     0.251 C 
ATOM      7  CA  UNL d   1      39.280 -13.757  15.210  0.00  0.00     0.117 C 
ATOM      8  C   UNL d   1      38.448 -14.835  15.323  0.00  0.00    -0.013 C 
ATOM      9  C   UNL d   1      37.160 -14.984  14.542  0.00  0.00     0.115 C 
ENDROOT
BRANCH   5  10
ATOM     10  N   UNL d   1      37.943 -11.294  11.435  0.00  0.00    -0.339 N 
ATOM     11  C   UNL d   1      37.218 -10.149  11.110  0.00  0.00     0.275 C 
ATOM     12  O   UNL d   1      36.971  -9.310  11.977  0.00  0.00    -0.266 OA
ATOM     13  H   UNL d   1      38.304 -11.877  10.687  0.00  0.00     0.163 HD
BRANCH  11  14
ATOM     14  C   UNL d   1      36.686  -9.893   9.696  0.00  0.00     0.180 C 
ATOM     15  N   UNL d   1      35.852 -10.598   8.991  0.00  0.00    -0.126 NA
BRANCH  15  16
ATOM     16  O   UNL d   1      35.337 -11.756   9.575  0.00  0.00    -0.261 OA
ATOM     17  C   UNL d   1      36.031 -12.858   8.962  0.00  0.00     0.240 C 
ENDBRANCH  15  16
BRANCH  14  18
ATOM     18  C   UNL d   1      37.275  -8.762   8.963  0.00  0.00     0.102 A 
ATOM     19  N   UNL d   1      37.184  -8.657   7.581  0.00  0.00    -0.222 NA
ATOM     20  C   UNL d   1      37.646  -7.500   7.180  0.00  0.00     0.164 A 
ATOM     21  S   UNL d   1      38.309  -6.501   8.407  0.00  0.00    -0.062 SA
ATOM     22  C   UNL d   1      37.905  -7.687   9.572  0.00  0.00     0.087 A 
BRANCH  20  23
ATOM     23  N   UNL d   1      37.614  -7.108   5.900  0.00  0.00    -0.378 N 
ATOM     24  H   UNL d   1      37.988  -7.718   5.186  0.00  0.00     0.158 HD
ATOM     25  H   UNL d   1      36.817  -6.548   5.623  0.00  0.00     0.158 HD
ENDBRANCH  20  23
ENDBRANCH  14  18
ENDBRANCH  11  14
ENDBRANCH   5  10
BRANCH   7  26
ATOM     26  C   UNL d   1      40.505 -13.628  16.101  0.00  0.00     0.194 C 
ATOM     27  OXT UNL d   1      40.478 -13.102  17.205  0.00  0.00    -0.645 OA
BRANCH  26  28
ATOM     28  O   UNL d   1      41.664 -13.995  15.531  0.00  0.00    -0.772 OA
ATOM     29  H   UNL d   1      41.773 -14.958  15.374  0.00  0.00     0.167 HD
ENDBRANCH  26  28
ENDBRANCH   7  26
BRANCH   8  30
ATOM     30  C   UNL d   1      38.750 -16.049  16.190  0.00  0.00     0.216 C 
BRANCH  30  31
ATOM     31  O   UNL d   1      39.277 -17.117  15.388  0.00  0.00    -0.317 OA
BRANCH  31  32
ATOM     32  C   UNL d   1      40.630 -17.233  15.355  0.00  0.00     0.255 C 
ATOM     33  O   UNL d   1      41.362 -16.772  14.492  0.00  0.00    -0.266 OA
ATOM     34  C   UNL d   1      41.108 -18.002  16.548  0.00  0.00     0.126 C 
ENDBRANCH  31  32
ENDBRANCH  30  31
ENDBRANCH   8  30
TORSDOF 10
ENDMDL
MODEL 4
REMARK VINA RESULT:      -7.2      6.052      8.923
REMARK  10 active torsions:
REMARK  status: ('A' for Active; 'I' for Inactive)
REMARK    1  A    between atoms: O_4  and  C_21 
REMARK    2  A    between atoms: O_4  and  C_26 
REMARK    3  A    between atoms: O_5  and  C_22 
REMARK    4  A    between atoms: O_8  and  N_12 
REMARK    5  A    between atoms: CA_16  and  N_11 
REMARK       I    between atoms: N_11  and  C_23 
REMARK    6  A    between atoms: N_14  and  C_29 
REMARK    7  A    between atoms: CA_18  and  C_22 
REMARK    8  A    between atoms: C_19  and  C_21 
REMARK    9  A    between atoms: C_23  and  C_24 
REMARK   10  A    between atoms: C_24  and  C_25 
ROOT
ATOM      1  S   UNL d   1      36.446  -9.760   4.158  0.00  0.00    -0.136 SA
ATOM      2  O   UNL d   1      39.658  -7.243   4.880  0.00  0.00    -0.271 OA
ATOM      3  N   UNL d   1      37.358  -7.471   5.163  0.00  0.00    -0.293 N 
ATOM      4  C   UNL d   1      36.581  -7.950   4.022  0.00  0.00     0.187 C 
ATOM      5  CA  UNL d   1      37.739  -7.366   3.134  0.00  0.00     0.211 C 
ATOM      6  C   UNL d   1      38.533  -7.378   4.477  0.00  0.00     0.251 C 
ATOM      7  CA  UNL d   1      37.108  -7.820   6.473  0.00  0.00     0.117 C 
ATOM      8  C   UNL d   1      36.254  -8.841   6.783  0.00  0.00    -0.013 C 
ATOM      9  C   UNL d   1      35.550  -9.688   5.745  0.00  0.00     0.115 C 
ENDROOT
BRANCH   5  10
ATOM     10  N   UNL d   1      38.124  -8.129   1.894  0.00  0.00    -0.339 N 
ATOM     11  C   UNL d   1      38.953  -7.461   0.995  0.00  0.00     0.275 C 
ATOM     12  O   UNL d   1      39.327  -6.312   1.240  0.00  0.00    -0.266 OA
ATOM     13  H   UNL d   1      37.981  -9.128   1.781  0.00  0.00     0.163 HD
BRANCH  11  14
ATOM     14  C   UNL d   1      39.411  -8.095  -0.323  0.00  0.00     0.180 C 
ATOM     15  N   UNL d   1      40.605  -8.169  -0.830  0.00  0.00    -0.126 NA
BRANCH  15  16
ATOM     16  O   UNL d   1      41.650  -7.612  -0.093  0.00  0.00    -0.261 OA
ATOM     17  C   UNL d   1      42.199  -6.559  -0.906  0.00  0.00     0.240 C 
ENDBRANCH  15  16
BRANCH  14  18
ATOM     18  C   UNL d   1      38.354  -8.593  -1.217  0.00  0.00     0.102 A 
ATOM     19  N   UNL d   1      37.114  -7.975  -1.301  0.00  0.00    -0.222 NA
ATOM     20  C   UNL d   1      36.405  -8.503  -2.266  0.00  0.00     0.164 A 
ATOM     21  S   UNL d   1      37.127  -9.834  -3.073  0.00  0.00    -0.062 SA
ATOM     22  C   UNL d   1      38.514  -9.662  -2.087  0.00  0.00     0.087 A 
BRANCH  20  23
ATOM     23  N   UNL d   1      35.194  -8.050  -2.613  0.00  0.00    -0.378 N 
ATOM     24  H   UNL d   1      34.480  -8.709  -2.895  0.00  0.00     0.158 HD
ATOM     25  H   UNL d   1      34.861  -7.233  -2.114  0.00  0.00     0.158 HD
ENDBRANCH  20  23
ENDBRANCH  14  18
ENDBRANCH  11  14
ENDBRANCH   5  10
BRANCH   7  26
ATOM     26  C   UNL d   1      37.699  -6.947   7.568  0.00  0.00     0.194 C 
ATOM     27  OXT UNL d   1      38.621  -7.305   8.288  0.00  0.00    -0.645 OA
BRANCH  26  28
ATOM     28  O   UNL d   1      37.038  -5.801   7.802  0.00  0.00    -0.772 OA
ATOM     29  H   UNL d   1      37.587  -5.053   8.120  0.00  0.00     0.167 HD
ENDBRANCH  26  28
ENDBRANCH   7  26
BRANCH   8  30
ATOM     30  C   UNL d   1      35.964  -9.298   8.205  0.00  0.00     0.216 C 
BRANCH  30  31
ATOM     31  O   UNL d   1      35.821 -10.726   8.251  0.00  0.00    -0.317 OA
BRANCH  31  32
ATOM     32  C   UNL d   1      35.908 -11.300   9.479  0.00  0.00     0.255 C 
ATOM     33  O   UNL d   1      35.219 -12.226   9.881  0.00  0.00    -0.266 OA
ATOM     34  C   UNL d   1      36.992 -10.643  10.278  0.00  0.00     0.126 C 
ENDBRANCH  31  32
ENDBRANCH  30  31
ENDBRANCH   8  30
TORSDOF 10
ENDMDL
MODEL 5
REMARK VINA RESULT:      -7.1      3.456      5.453
REMARK  10 active torsions:
REMARK  status: ('A' for Active; 'I' for Inactive)
REMARK    1  A    between atoms: O_4  and  C_21 
REMARK    2  A    between atoms: O_4  and  C_26 
REMARK    3  A    between atoms: O_5  and  C_22 
REMARK    4  A    between atoms: O_8  and  N_12 
REMARK    5  A    between atoms: CA_16  and  N_11 
REMARK       I    between atoms: N_11  and  C_23 
REMARK    6  A    between atoms: N_14  and  C_29 
REMARK    7  A    between atoms: CA_18  and  C_22 
REMARK    8  A    between atoms: C_19  and  C_21 
REMARK    9  A    between atoms: C_23  and  C_24 
REMARK   10  A    between atoms: C_24  and  C_25 
ROOT
ATOM      1  S   UNL d   1      36.671  -7.117  -5.057  0.00  0.00    -0.136 SA
ATOM      2  O   UNL d   1      38.763 -10.625  -5.754  0.00  0.00    -0.271 OA
ATOM      3  N   UNL d   1      38.884  -8.552  -4.702  0.00  0.00    -0.293 N 
ATOM      4  C   UNL d   1      38.427  -7.385  -5.455  0.00  0.00     0.187 C 
ATOM      5  CA  UNL d   1      38.768  -8.223  -6.740  0.00  0.00     0.211 C 
ATOM      6  C   UNL d   1      38.755  -9.422  -5.744  0.00  0.00     0.251 C 
ATOM      7  CA  UNL d   1      38.682  -8.730  -3.350  0.00  0.00     0.117 C 
ATOM      8  C   UNL d   1      37.820  -7.933  -2.652  0.00  0.00    -0.013 C 
ATOM      9  C   UNL d   1      36.998  -6.832  -3.286  0.00  0.00     0.115 C 
ENDROOT
BRANCH   5  10
ATOM     10  N   UNL d   1      37.859  -8.077  -7.932  0.00  0.00    -0.339 N 
ATOM     11  C   UNL d   1      38.369  -7.350  -9.007  0.00  0.00     0.275 C 
ATOM     12  O   UNL d   1      39.503  -6.872  -8.943  0.00  0.00    -0.266 OA
ATOM     13  H   UNL d   1      37.014  -8.624  -8.065  0.00  0.00     0.163 HD
BRANCH  11  14
ATOM     14  C   UNL d   1      37.556  -7.095 -10.280  0.00  0.00     0.180 C 
ATOM     15  N   UNL d   1      37.533  -6.045 -11.045  0.00  0.00    -0.126 NA
BRANCH  15  16
ATOM     16  O   UNL d   1      38.365  -4.980 -10.697  0.00  0.00    -0.261 OA
ATOM     17  C   UNL d   1      39.055  -4.599 -11.902  0.00  0.00     0.240 C 
ENDBRANCH  15  16
BRANCH  14  18
ATOM     18  C   UNL d   1      36.562  -8.117 -10.645  0.00  0.00     0.102 A 
ATOM     19  N   UNL d   1      36.937  -9.384 -11.069  0.00  0.00    -0.222 NA
ATOM     20  C   UNL d   1      35.885 -10.155 -11.188  0.00  0.00     0.164 A 
ATOM     21  S   UNL d   1      34.374  -9.396 -10.899  0.00  0.00    -0.062 SA
ATOM     22  C   UNL d   1      35.190  -7.936 -10.542  0.00  0.00     0.087 A 
BRANCH  20  23
ATOM     23  N   UNL d   1      35.965 -11.451 -11.515  0.00  0.00    -0.378 N 
ATOM     24  H   UNL d   1      36.421 -11.716 -12.378  0.00  0.00     0.158 HD
ATOM     25  H   UNL d   1      36.073 -12.102 -10.746  0.00  0.00     0.158 HD
ENDBRANCH  20  23
ENDBRANCH  14  18
ENDBRANCH  11  14
ENDBRANCH   5  10
BRANCH   7  26
ATOM     26  C   UNL d   1      39.551  -9.748  -2.629  0.00  0.00     0.194 C 
ATOM     27  OXT UNL d   1      40.647  -9.480  -2.157  0.00  0.00    -0.645 OA
BRANCH  26  28
ATOM     28  O   UNL d   1      39.103 -11.014  -2.676  0.00  0.00    -0.772 OA
ATOM     29  H   UNL d   1      38.358 -11.177  -3.294  0.00  0.00     0.167 HD
ENDBRANCH  26  28
ENDBRANCH   7  26
BRANCH   8  30
ATOM     30  C   UNL d   1      37.526  -8.103  -1.168  0.00  0.00     0.216 C 
BRANCH  30  31
ATOM     31  O   UNL d   1      36.901  -6.921  -0.645  0.00  0.00    -0.317 OA
BRANCH  31  32
ATOM     32  C   UNL d   1      37.469  -6.381   0.464  0.00  0.00     0.255 C 
ATOM     33  O   UNL d   1      36.942  -6.292   1.562  0.00  0.00    -0.266 OA
ATOM     34  C   UNL d   1      38.860  -5.917   0.154  0.00  0.00     0.126 C 
ENDBRANCH  31  32
ENDBRANCH  30  31
ENDBRANCH   8  30
TORSDOF 10
ENDMDL
MODEL 6
REMARK VINA RESULT:      -7.1      3.147      4.527
REMARK  10 active torsions:
REMARK  status: ('A' for Active; 'I' for Inactive)
REMARK    1  A    between atoms: O_4  and  C_21 
REMARK    2  A    between atoms: O_4  and  C_26 
REMARK    3  A    between atoms: O_5  and  C_22 
REMARK    4  A    between atoms: O_8  and  N_12 
REMARK    5  A    between atoms: CA_16  and  N_11 
REMARK       I    between atoms: N_11  and  C_23 
REMARK    6  A    between atoms: N_14  and  C_29 
REMARK    7  A    between atoms: CA_18  and  C_22 
REMARK    8  A    between atoms: C_19  and  C_21 
REMARK    9  A    between atoms: C_23  and  C_24 
REMARK   10  A    between atoms: C_24  and  C_25 
ROOT
ATOM      1  S   UNL d   1      38.088  -9.326  -3.545  0.00  0.00    -0.136 SA
ATOM      2  O   UNL d   1      41.885  -7.668  -3.457  0.00  0.00    -0.271 OA
ATOM      3  N   UNL d   1      39.697  -7.373  -2.719  0.00  0.00    -0.293 N 
ATOM      4  C   UNL d   1      38.622  -7.592  -3.686  0.00  0.00     0.187 C 
ATOM      5  CA  UNL d   1      39.693  -7.241  -4.782  0.00  0.00     0.211 C 
ATOM      6  C   UNL d   1      40.704  -7.514  -3.627  0.00  0.00     0.251 C 
ATOM      7  CA  UNL d   1      39.628  -7.731  -1.389  0.00  0.00     0.117 C 
ATOM      8  C   UNL d   1      38.631  -8.542  -0.925  0.00  0.00    -0.013 C 
ATOM      9  C   UNL d   1      37.559  -9.141  -1.810  0.00  0.00     0.115 C 
ENDROOT
BRANCH   5  10
ATOM     10  N   UNL d   1      39.638  -7.999  -6.083  0.00  0.00    -0.339 N 
ATOM     11  C   UNL d   1      38.868  -7.426  -7.094  0.00  0.00     0.275 C 
ATOM     12  O   UNL d   1      38.285  -6.360  -6.894  0.00  0.00    -0.266 OA
ATOM     13  H   UNL d   1      40.262  -8.765  -6.314  0.00  0.00     0.163 HD
BRANCH  11  14
ATOM     14  C   UNL d   1      38.694  -8.090  -8.464  0.00  0.00     0.180 C 
ATOM     15  N   UNL d   1      39.041  -9.281  -8.851  0.00  0.00    -0.126 NA
BRANCH  15  16
ATOM     16  O   UNL d   1      39.652 -10.109  -7.910  0.00  0.00    -0.261 OA
ATOM     17  C   UNL d   1      40.322 -11.141  -8.657  0.00  0.00     0.240 C 
ENDBRANCH  15  16
BRANCH  14  18
ATOM     18  C   UNL d   1      38.173  -7.242  -9.547  0.00  0.00     0.102 A 
ATOM     19  N   UNL d   1      38.949  -6.259 -10.146  0.00  0.00    -0.222 NA
ATOM     20  C   UNL d   1      38.323  -5.746 -11.175  0.00  0.00     0.164 A 
ATOM     21  S   UNL d   1      36.731  -6.330 -11.439  0.00  0.00    -0.062 SA
ATOM     22  C   UNL d   1      36.909  -7.383 -10.102  0.00  0.00     0.087 A 
BRANCH  20  23
ATOM     23  N   UNL d   1      38.872  -4.826 -11.977  0.00  0.00    -0.378 N 
ATOM     24  H   UNL d   1      38.386  -4.551 -12.821  0.00  0.00     0.158 HD
ATOM     25  H   UNL d   1      39.404  -4.094 -11.521  0.00  0.00     0.158 HD
ENDBRANCH  20  23
ENDBRANCH  14  18
ENDBRANCH  11  14
ENDBRANCH   5  10
BRANCH   7  26
ATOM     26  C   UNL d   1      40.610  -7.083  -0.427  0.00  0.00     0.194 C 
ATOM     27  OXT UNL d   1      41.740  -7.511  -0.232  0.00  0.00    -0.645 OA
BRANCH  26  28
ATOM     28  O   UNL d   1      40.103  -6.089   0.321  0.00  0.00    -0.772 OA
ATOM     29  H   UNL d   1      39.985  -5.231  -0.140  0.00  0.00     0.167 HD
ENDBRANCH  26  28
ENDBRANCH   7  26
BRANCH   8  30
ATOM     30  C   UNL d   1      38.521  -9.002   0.521  0.00  0.00     0.216 C 
BRANCH  30  31
ATOM     31  O   UNL d   1      37.849  -8.010   1.311  0.00  0.00    -0.317 OA
BRANCH  31  32
ATOM     32  C   UNL d   1      38.195  -7.949   2.623  0.00  0.00     0.255 C 
ATOM     33  O   UNL d   1      39.242  -7.496   3.062  0.00  0.00    -0.266 OA
ATOM     34  C   UNL d   1      37.093  -8.507   3.471  0.00  0.00     0.126 C 
ENDBRANCH  31  32
ENDBRANCH  30  31
ENDBRANCH   8  30
TORSDOF 10
ENDMDL
MODEL 7
REMARK VINA RESULT:      -7.0     15.229     18.410
REMARK  10 active torsions:
REMARK  status: ('A' for Active; 'I' for Inactive)
REMARK    1  A    between atoms: O_4  and  C_21 
REMARK    2  A    between atoms: O_4  and  C_26 
REMARK    3  A    between atoms: O_5  and  C_22 
REMARK    4  A    between atoms: O_8  and  N_12 
REMARK    5  A    between atoms: CA_16  and  N_11 
REMARK       I    between atoms: N_11  and  C_23 
REMARK    6  A    between atoms: N_14  and  C_29 
REMARK    7  A    between atoms: CA_18  and  C_22 
REMARK    8  A    between atoms: C_19  and  C_21 
REMARK    9  A    between atoms: C_23  and  C_24 
REMARK   10  A    between atoms: C_24  and  C_25 
ROOT
ATOM      1  S   UNL d   1      39.739 -14.333  14.934  0.00  0.00    -0.136 SA
ATOM      2  O   UNL d   1      42.479 -11.441  13.794  0.00  0.00    -0.271 OA
ATOM      3  N   UNL d   1      41.428 -12.400  15.636  0.00  0.00    -0.293 N 
ATOM      4  C   UNL d   1      39.988 -12.637  15.546  0.00  0.00     0.187 C 
ATOM      5  CA  UNL d   1      39.978 -11.469  14.493  0.00  0.00     0.211 C 
ATOM      6  C   UNL d   1      41.514 -11.736  14.449  0.00  0.00     0.251 C 
ATOM      7  CA  UNL d   1      42.316 -13.252  16.257  0.00  0.00     0.117 C 
ATOM      8  C   UNL d   1      41.945 -14.514  16.628  0.00  0.00    -0.013 C 
ATOM      9  C   UNL d   1      40.572 -15.094  16.366  0.00  0.00     0.115 C 
ENDROOT
BRANCH   5  10
ATOM     10  N   UNL d   1      39.043 -11.593  13.319  0.00  0.00    -0.339 N 
ATOM     11  C   UNL d   1      38.227 -10.491  13.066  0.00  0.00     0.275 C 
ATOM     12  O   UNL d   1      38.300  -9.494  13.786  0.00  0.00    -0.266 OA
ATOM     13  H   UNL d   1      39.115 -12.323  12.618  0.00  0.00     0.163 HD
BRANCH  11  14
ATOM     14  C   UNL d   1      37.207 -10.475  11.923  0.00  0.00     0.180 C 
ATOM     15  N   UNL d   1      36.211 -11.278  11.698  0.00  0.00    -0.126 NA
BRANCH  15  16
ATOM     16  O   UNL d   1      36.000 -12.310  12.613  0.00  0.00    -0.261 OA
ATOM     17  C   UNL d   1      36.292 -13.533  11.912  0.00  0.00     0.240 C 
ENDBRANCH  15  16
BRANCH  14  18
ATOM     18  C   UNL d   1      37.434  -9.495  10.849  0.00  0.00     0.102 A 
ATOM     19  N   UNL d   1      37.004  -9.721   9.549  0.00  0.00    -0.222 NA
ATOM     20  C   UNL d   1      37.185  -8.652   8.816  0.00  0.00     0.164 A 
ATOM     21  S   UNL d   1      37.967  -7.341   9.599  0.00  0.00    -0.062 SA
ATOM     22  C   UNL d   1      38.028  -8.256  11.043  0.00  0.00     0.087 A 
BRANCH  20  23
ATOM     23  N   UNL d   1      36.793  -8.570   7.538  0.00  0.00    -0.378 N 
ATOM     24  H   UNL d   1      35.928  -8.096   7.315  0.00  0.00     0.158 HD
ATOM     25  H   UNL d   1      37.530  -8.482   6.848  0.00  0.00     0.158 HD
ENDBRANCH  20  23
ENDBRANCH  14  18
ENDBRANCH  11  14
ENDBRANCH   5  10
BRANCH   7  26
ATOM     26  C   UNL d   1      43.679 -12.701  16.645  0.00  0.00     0.194 C 
ATOM     27  OXT UNL d   1      43.897 -12.138  17.709  0.00  0.00    -0.645 OA
BRANCH  26  28
ATOM     28  O   UNL d   1      44.604 -12.734  15.671  0.00  0.00    -0.772 OA
ATOM     29  H   UNL d   1      44.616 -11.956  15.072  0.00  0.00     0.167 HD
ENDBRANCH  26  28
ENDBRANCH   7  26
BRANCH   8  30
ATOM     30  C   UNL d   1      42.888 -15.513  17.282  0.00  0.00     0.216 C 
BRANCH  30  31
ATOM     31  O   UNL d   1      43.176 -16.592  16.381  0.00  0.00    -0.317 OA
BRANCH  31  32
ATOM     32  C   UNL d   1      43.940 -16.286  15.300  0.00  0.00     0.255 C 
ATOM     33  O   UNL d   1      45.031 -15.737  15.334  0.00  0.00    -0.266 OA
ATOM     34  C   UNL d   1      43.259 -16.738  14.045  0.00  0.00     0.126 C 
ENDBRANCH  31  32
ENDBRANCH  30  31
ENDBRANCH   8  30
TORSDOF 10
ENDMDL
MODEL 8
REMARK VINA RESULT:      -6.9      3.198      4.806
REMARK  10 active torsions:
REMARK  status: ('A' for Active; 'I' for Inactive)
REMARK    1  A    between atoms: O_4  and  C_21 
REMARK    2  A    between atoms: O_4  and  C_26 
REMARK    3  A    between atoms: O_5  and  C_22 
REMARK    4  A    between atoms: O_8  and  N_12 
REMARK    5  A    between atoms: CA_16  and  N_11 
REMARK       I    between atoms: N_11  and  C_23 
REMARK    6  A    between atoms: N_14  and  C_29 
REMARK    7  A    between atoms: CA_18  and  C_22 
REMARK    8  A    between atoms: C_19  and  C_21 
REMARK    9  A    between atoms: C_23  and  C_24 
REMARK   10  A    between atoms: C_24  and  C_25 
ROOT
ATOM      1  S   UNL d   1      37.616  -9.778  -4.337  0.00  0.00    -0.136 SA
ATOM      2  O   UNL d   1      40.778  -7.152  -4.854  0.00  0.00    -0.271 OA
ATOM      3  N   UNL d   1      38.719  -7.416  -3.803  0.00  0.00    -0.293 N 
ATOM      4  C   UNL d   1      37.624  -7.976  -4.593  0.00  0.00     0.187 C 
ATOM      5  CA  UNL d   1      38.392  -7.416  -5.844  0.00  0.00     0.211 C 
ATOM      6  C   UNL d   1      39.590  -7.334  -4.848  0.00  0.00     0.251 C 
ATOM      7  CA  UNL d   1      38.936  -7.696  -2.470  0.00  0.00     0.117 C 
ATOM      8  C   UNL d   1      38.278  -8.718  -1.845  0.00  0.00    -0.013 C 
ATOM      9  C   UNL d   1      37.302  -9.637  -2.546  0.00  0.00     0.115 C 
ENDROOT
BRANCH   5  10
ATOM     10  N   UNL d   1      38.370  -8.239  -7.106  0.00  0.00    -0.339 N 
ATOM     11  C   UNL d   1      38.332  -7.526  -8.302  0.00  0.00     0.275 C 
ATOM     12  O   UNL d   1      38.319  -6.294  -8.284  0.00  0.00    -0.266 OA
ATOM     13  H   UNL d   1      38.572  -9.233  -7.132  0.00  0.00     0.163 HD
BRANCH  11  14
ATOM     14  C   UNL d   1      38.280  -8.221  -9.667  0.00  0.00     0.180 C 
ATOM     15  N   UNL d   1      39.138  -9.031 -10.211  0.00  0.00    -0.126 NA
BRANCH  15  16
ATOM     16  O   UNL d   1      40.278  -9.347  -9.473  0.00  0.00    -0.261 OA
ATOM     17  C   UNL d   1      40.193 -10.754  -9.184  0.00  0.00     0.240 C 
ENDBRANCH  15  16
BRANCH  14  18
ATOM     18  C   UNL d   1      37.172  -7.843 -10.559  0.00  0.00     0.102 A 
ATOM     19  N   UNL d   1      36.093  -8.686 -10.784  0.00  0.00    -0.222 NA
ATOM     20  C   UNL d   1      35.173  -8.073 -11.485  0.00  0.00     0.164 A 
ATOM     21  S   UNL d   1      35.573  -6.488 -12.007  0.00  0.00    -0.062 SA
ATOM     22  C   UNL d   1      37.072  -6.613 -11.193  0.00  0.00     0.087 A 
BRANCH  20  23
ATOM     23  N   UNL d   1      33.994  -8.632 -11.787  0.00  0.00    -0.378 N 
ATOM     24  H   UNL d   1      33.143  -8.113 -11.620  0.00  0.00     0.158 HD
ATOM     25  H   UNL d   1      33.982  -9.243 -12.596  0.00  0.00     0.158 HD
ENDBRANCH  20  23
ENDBRANCH  14  18
ENDBRANCH  11  14
ENDBRANCH   5  10
BRANCH   7  26
ATOM     26  C   UNL d   1      39.824  -6.750  -1.680  0.00  0.00     0.194 C 
ATOM     27  OXT UNL d   1      41.030  -6.910  -1.551  0.00  0.00    -0.645 OA
BRANCH  26  28
ATOM     28  O   UNL d   1      39.172  -5.796  -0.994  0.00  0.00    -0.772 OA
ATOM     29  H   UNL d   1      38.643  -5.172  -1.536  0.00  0.00     0.167 HD
ENDBRANCH  26  28
ENDBRANCH   7  26
BRANCH   8  30
ATOM     30  C   UNL d   1      38.501  -9.101  -0.390  0.00  0.00     0.216 C 
BRANCH  30  31
ATOM     31  O   UNL d   1      37.760  -8.227   0.476  0.00  0.00    -0.317 OA
BRANCH  31  32
ATOM     32  C   UNL d   1      38.360  -7.890   1.647  0.00  0.00     0.255 C 
ATOM     33  O   UNL d   1      39.232  -7.046   1.782  0.00  0.00    -0.266 OA
ATOM     34  C   UNL d   1      37.783  -8.697   2.770  0.00  0.00     0.126 C 
ENDBRANCH  31  32
ENDBRANCH  30  31
ENDBRANCH   8  30
TORSDOF 10
ENDMDL
MODEL 9
REMARK VINA RESULT:      -6.8     15.481     18.652
REMARK  10 active torsions:
REMARK  status: ('A' for Active; 'I' for Inactive)
REMARK    1  A    between atoms: O_4  and  C_21 
REMARK    2  A    between atoms: O_4  and  C_26 
REMARK    3  A    between atoms: O_5  and  C_22 
REMARK    4  A    between atoms: O_8  and  N_12 
REMARK    5  A    between atoms: CA_16  and  N_11 
REMARK       I    between atoms: N_11  and  C_23 
REMARK    6  A    between atoms: N_14  and  C_29 
REMARK    7  A    between atoms: CA_18  and  C_22 
REMARK    8  A    between atoms: C_19  and  C_21 
REMARK    9  A    between atoms: C_23  and  C_24 
REMARK   10  A    between atoms: C_24  and  C_25 
ROOT
ATOM      1  S   UNL d   1      39.179 -14.021  14.666  0.00  0.00    -0.136 SA
ATOM      2  O   UNL d   1      42.414 -11.552  13.886  0.00  0.00    -0.271 OA
ATOM      3  N   UNL d   1      41.020 -12.331  15.580  0.00  0.00    -0.293 N 
ATOM      4  C   UNL d   1      39.584 -12.368  15.310  0.00  0.00     0.187 C 
ATOM      5  CA  UNL d   1      39.866 -11.225  14.269  0.00  0.00     0.211 C 
ATOM      6  C   UNL d   1      41.344 -11.702  14.415  0.00  0.00     0.251 C 
ATOM      7  CA  UNL d   1      41.698 -13.289  16.304  0.00  0.00     0.117 C 
ATOM      8  C   UNL d   1      41.112 -14.482  16.622  0.00  0.00    -0.013 C 
ATOM      9  C   UNL d   1      39.715 -14.870  16.189  0.00  0.00     0.115 C 
ENDROOT
BRANCH   5  10
ATOM     10  N   UNL d   1      39.076 -11.234  12.987  0.00  0.00    -0.339 N 
ATOM     11  C   UNL d   1      38.221 -10.152  12.786  0.00  0.00     0.275 C 
ATOM     12  O   UNL d   1      38.147  -9.260  13.633  0.00  0.00    -0.266 OA
ATOM     13  H   UNL d   1      39.273 -11.856  12.210  0.00  0.00     0.163 HD
BRANCH  11  14
ATOM     14  C   UNL d   1      37.333 -10.032  11.543  0.00  0.00     0.180 C 
ATOM     15  N   UNL d   1      36.971  -8.968  10.889  0.00  0.00    -0.126 NA
BRANCH  15  16
ATOM     16  O   UNL d   1      37.451  -7.741  11.347  0.00  0.00    -0.261 OA
ATOM     17  C   UNL d   1      38.361  -7.264  10.340  0.00  0.00     0.240 C 
ENDBRANCH  15  16
BRANCH  14  18
ATOM     18  C   UNL d   1      36.686 -11.267  11.072  0.00  0.00     0.102 A 
ATOM     19  N   UNL d   1      36.702 -11.637   9.734  0.00  0.00    -0.222 NA
ATOM     20  C   UNL d   1      36.199 -12.837   9.587  0.00  0.00     0.164 A 
ATOM     21  S   UNL d   1      35.584 -13.562  11.014  0.00  0.00    -0.062 SA
ATOM     22  C   UNL d   1      36.069 -12.186  11.908  0.00  0.00     0.087 A 
BRANCH  20  23
ATOM     23  N   UNL d   1      36.156 -13.469   8.407  0.00  0.00    -0.378 N 
ATOM     24  H   UNL d   1      35.813 -12.976   7.594  0.00  0.00     0.158 HD
ATOM     25  H   UNL d   1      36.894 -14.141   8.232  0.00  0.00     0.158 HD
ENDBRANCH  20  23
ENDBRANCH  14  18
ENDBRANCH  11  14
ENDBRANCH   5  10
BRANCH   7  26
ATOM     26  C   UNL d   1      43.065 -12.926  16.860  0.00  0.00     0.194 C 
ATOM     27  OXT UNL d   1      44.114 -13.342  16.386  0.00  0.00    -0.645 OA
BRANCH  26  28
ATOM     28  O   UNL d   1      43.047 -12.234  18.011  0.00  0.00    -0.772 OA
ATOM     29  H   UNL d   1      43.358 -11.305  17.951  0.00  0.00     0.167 HD
ENDBRANCH  26  28
ENDBRANCH   7  26
BRANCH   8  30
ATOM     30  C   UNL d   1      41.819 -15.593  17.384  0.00  0.00     0.216 C 
BRANCH  30  31
ATOM     31  O   UNL d   1      42.095 -16.700  16.513  0.00  0.00    -0.317 OA
BRANCH  31  32
ATOM     32  C   UNL d   1      43.335 -16.734  15.958  0.00  0.00     0.255 C 
ATOM     33  O   UNL d   1      43.579 -16.694  14.762  0.00  0.00    -0.266 OA
ATOM     34  C   UNL d   1      44.376 -16.811  17.033  0.00  0.00     0.126 C 
ENDBRANCH  31  32
ENDBRANCH  30  31
ENDBRANCH   8  30
TORSDOF 10
ENDMDL
