@<TRIPOS>MOLECULE
5742673
 47 49 0 0 0
SMALL
GASTEIGER

@<TRIPOS>ATOM
      1 S           1.3653    0.9934    0.6570 S.3     1  UNL1       -0.1310
      2 S           1.6479    8.0352   -1.1925 S.2     1  UNL1       -0.0604
      3 O          -2.4946   -0.3754    1.2857 O.2     1  UNL1       -0.2731
      4 O           1.6737   -3.6307    1.6558 O.3     1  UNL1       -0.4603
      5 O          -2.1752   -2.8064    0.1683 O.3     1  UNL1       -0.4763
      6 OXT        -0.3974   -4.0474   -0.3858 O.2     1  UNL1       -0.2437
      7 O          -0.6716    3.6872   -1.4962 O.2     1  UNL1       -0.2683
      8 O          -2.8691    5.2933    1.3680 O.2     1  UNL1       -0.3964
      9 O           3.0599   -2.2319    2.8349 O.2     1  UNL1       -0.2512
     10 N          -0.6819   -0.4932   -0.1685 N.am    1  UNL1       -0.2489
     11 N          -1.3379    2.8003    0.4904 N.am    1  UNL1       -0.2963
     12 N          -1.7091    5.9605    0.9717 N.2     1  UNL1       -0.0779
     13 N           1.4961    5.5561   -0.5412 N.ar    1  UNL1       -0.2233
     14 N           3.5146    6.1552   -1.5296 N.pl3   1  UNL1       -0.3375
     15 C          -0.0085    0.7581   -0.5129 C.3     1  UNL1        0.1042
     16 CA         -1.3801    1.4532   -0.1831 C.3     1  UNL1        0.1286
     17 C          -1.6878    0.1019    0.5327 C.2     1  UNL1        0.2440
     18 CA         -0.0328   -1.6926    0.0311 C.2     1  UNL1        0.1252
     19 C           1.3264   -1.7495    0.1603 C.2     1  UNL1        0.0056
     20 C           2.2206   -0.5298    0.1342 C.3     1  UNL1        0.0220
     21 C           2.0967   -3.0364    0.4193 C.3     1  UNL1        0.1166
     22 C          -0.8577   -2.9684   -0.0359 C.2     1  UNL1        0.3515
     23 C          -0.9625    3.8747   -0.3136 C.2     1  UNL1        0.2684
     24 C          -0.8699    5.3060    0.2262 C.2     1  UNL1        0.1897
     25 C           0.2604    6.1192   -0.2483 C.ar    1  UNL1        0.1067
     26 C           2.2308   -3.1276    2.7882 C.2     1  UNL1        0.3043
     27 C           0.1836    7.4803   -0.5022 C.ar    1  UNL1        0.0067
     28 C           1.6664   -3.8224    3.9895 C.3     1  UNL1        0.0332
     29 C           2.2855    6.4474   -1.0842 C.ar    1  UNL1        0.1562
     30 C          -3.6169    6.2283    2.1666 C.3     1  UNL1        0.1072
     31 H           0.2833    0.8194   -1.5682 H       1  UNL1        0.0644
     32 HA         -2.0487    1.5281   -1.0580 H       1  UNL1        0.0622
     33 H           2.6157   -0.3955   -0.8812 H       1  UNL1        0.0424
     34 H           3.0833   -0.6509    0.7951 H       1  UNL1        0.0424
     35 H          -1.7417    2.9855    1.4023 H       1  UNL1        0.1499
     36 H           1.9420   -3.7628   -0.3863 H       1  UNL1        0.0746
     37 H           3.1853   -2.8794    0.4327 H       1  UNL1        0.0746
     38 H          -2.4334   -1.9800    0.6294 H       1  UNL1        0.2954
     39 H          -0.6619    8.1414   -0.3705 H       1  UNL1        0.0716
     40 H           0.5790   -3.7111    4.0054 H       1  UNL1        0.0342
     41 H           1.9453   -4.8783    3.9717 H       1  UNL1        0.0342
     42 H           2.0732   -3.3661    4.8967 H       1  UNL1        0.0342
     43 H          -2.9545    6.8153    2.8183 H       1  UNL1        0.0687
     44 H          -4.1836    6.9194    1.5296 H       1  UNL1        0.0687
     45 H          -4.3146    5.6761    2.7993 H       1  UNL1        0.0687
     46 H           4.1736    6.9055   -1.6891 H       1  UNL1        0.1442
     47 H           3.9145    5.2834   -1.2039 H       1  UNL1        0.1442
@<TRIPOS>BOND
     1     1    15    1
     2     1    20    1
     3     2    27   ar
     4     2    29   ar
     5     3    17    2
     6     4    21    1
     7     4    26    1
     8     5    22    1
     9     5    38    1
    10     6    22    2
    11     7    23    2
    12     8    12    1
    13     8    30    1
    14     9    26    2
    15    10    15    1
    16    10    17   am
    17    10    18    1
    18    16    11    1
    19    11    23   am
    20    11    35    1
    21    12    24    2
    22    13    25   ar
    23    13    29   ar
    24    14    29    1
    25    14    46    1
    26    14    47    1
    27    15    16    1
    28    15    31    1
    29    16    17    1
    30    16    32    1
    31    18    19    2
    32    18    22    1
    33    19    20    1
    34    19    21    1
    35    20    33    1
    36    20    34    1
    37    21    36    1
    38    21    37    1
    39    23    24    1
    40    24    25    1
    41    25    27   ar
    42    26    28    1
    43    27    39    1
    44    28    40    1
    45    28    41    1
    46    28    42    1
    47    30    43    1
    48    30    44    1
    49    30    45    1
