@<TRIPOS>MOLECULE
5742673
 47 49 0 0 0
SMALL
GASTEIGER

@<TRIPOS>ATOM
      1 S           1.3653    0.9934    0.6570 S.3     1  UNL11      -0.1310
      2 S          -4.7832    8.0295   -0.1503 S.3     1  UNL11      -0.0604
      3 O          -2.4946   -0.3754    1.2857 O.2     1  UNL11      -0.2731
      4 O           3.2863   -2.7622    1.1747 O.3     1  UNL11      -0.4603
      5 O          -0.1777   -4.1001    0.2100 O.3     1  UNL11      -0.4763
      6 OXT        -2.0751   -2.9743   -0.1638 O.2     1  UNL11      -0.2437
      7 O          -2.4541    3.6462   -1.3028 O.2     1  UNL11      -0.2683
      8 O           0.0176    5.1456    1.5244 O.2     1  UNL11      -0.3964
      9 O           4.3735   -2.0849   -0.7299 O.2     1  UNL11      -0.2512
     10 N          -0.6819   -0.4932   -0.1685 N.am    1  UNL11      -0.2489
     11 N          -1.3379    2.8003    0.4904 N.am    1  UNL11      -0.2963
     12 N          -1.0954    5.8804    1.1131 N.2     1  UNL11      -0.0779
     13 N          -4.3853    5.4930   -0.1883 N.pl3   1  UNL11      -0.2233
     14 N          -6.6169    6.1066   -0.4201 N.pl3   1  UNL11      -0.3375
     15 C          -0.0085    0.7581   -0.5129 C.3     1  UNL11       0.1042
     16 CA         -1.3801    1.4532   -0.1831 C.3     1  UNL11       0.1286
     17 C          -1.6878    0.1019    0.5327 C.2     1  UNL11       0.2440
     18 CA         -0.0328   -1.6926    0.0311 C.2     1  UNL11       0.1252
     19 C           1.3264   -1.7495    0.1603 C.2     1  UNL11       0.0056
     20 C           2.2206   -0.5298    0.1342 C.3     1  UNL11       0.0220
     21 C           2.0967   -3.0364    0.4193 C.3     1  UNL11       0.1166
     22 C          -0.8577   -2.9684   -0.0359 C.2     1  UNL11       0.3515
     23 C          -1.9341    3.8506   -0.2046 C.2     1  UNL11       0.2684
     24 C          -1.9503    5.2840    0.3373 C.2     1  UNL11       0.1897
     25 C          -3.1516    6.0841    0.0535 C.3     1  UNL11       0.1067
     26 C           4.3503   -2.2907    0.4738 C.2     1  UNL11       0.3043
     27 C          -3.1798    7.4705    0.0625 C.3     1  UNL11       0.0067
     28 C           5.5020   -2.0386    1.3982 C.3     1  UNL11       0.0332
     29 C          -5.3205    6.4053   -0.2634 C.3     1  UNL11       0.1562
     30 C           0.7831    6.0186    2.3746 C.3     1  UNL11       0.1072
     31 H           0.2833    0.8194   -1.5682 H       1  UNL11       0.0644
     32 HA         -2.0487    1.5281   -1.0580 H       1  UNL11       0.0622
     33 H           2.6157   -0.3955   -0.8812 H       1  UNL11       0.0424
     34 H           3.0833   -0.6509    0.7951 H       1  UNL11       0.0424
     35 H          -1.0869    2.9341    1.4641 H       1  UNL11       0.1499
     36 H           1.4901   -3.7591    0.9763 H       1  UNL11       0.0746
     37 H           2.3568   -3.5650   -0.5096 H       1  UNL11       0.0746
     38 H           0.7957   -4.0403    0.1044 H       1  UNL11       0.2954
     39 H          -2.3633    8.1577    0.2371 H       1  UNL11       0.0716
     40 H           5.2037   -1.3334    2.1785 H       1  UNL11       0.0342
     41 H           5.8370   -2.9806    1.8380 H       1  UNL11       0.0342
     42 H           6.3301   -1.5991    0.8344 H       1  UNL11       0.0342
     43 H           0.7955    7.0458    1.9838 H       1  UNL11       0.0687
     44 H           0.3684    6.0356    3.3906 H       1  UNL11       0.0687
     45 H           1.8129    5.6585    2.4178 H       1  UNL11       0.0687
     46 H          -7.2547    6.8251   -0.7359 H       1  UNL11       0.1442
     47 H          -6.8261    5.1667   -0.7345 H       1  UNL11       0.1442
@<TRIPOS>BOND
     1     1    15    1
     2     1    20    1
     3     2    27   ar
     4     2    29   ar
     5     3    17    2
     6     4    21    1
     7     4    26    1
     8     5    22    1
     9     5    38    1
    10     6    22    2
    11     7    23    2
    12     8    12    1
    13     8    30    1
    14     9    26    2
    15    10    15    1
    16    10    17   am
    17    10    18    1
    18    16    11    1
    19    11    23   am
    20    11    35    1
    21    12    24    2
    22    13    25   ar
    23    13    29   ar
    24    14    29    1
    25    14    46    1
    26    14    47    1
    27    15    16    1
    28    15    31    1
    29    16    17    1
    30    16    32    1
    31    18    19    2
    32    18    22    1
    33    19    20    1
    34    19    21    1
    35    20    33    1
    36    20    34    1
    37    21    36    1
    38    21    37    1
    39    23    24    1
    40    24    25    1
    41    25    27   ar
    42    26    28    1
    43    27    39    1
    44    28    40    1
    45    28    41    1
    46    28    42    1
    47    30    43    1
    48    30    44    1
    49    30    45    1
