MODEL 1
REMARK VINA RESULT:      -6.1      0.000      0.000
REMARK  3 active torsions:
REMARK  status: ('A' for Active; 'I' for Inactive)
REMARK    1  A    between atoms: C_1  and  O_3 
REMARK    2  A    between atoms: C_1  and  C_4 
REMARK    3  A    between atoms: C_5  and  O_10 
ROOT
ATOM      1  C   UNL d   1       6.965 -10.622 -26.204  0.00  0.00     0.070 A 
ATOM      2  C   UNL d   1       6.197 -11.616 -25.582  0.00  0.00     0.082 A 
ATOM      3  C   UNL d   1       6.524 -12.062 -24.301  0.00  0.00     0.037 A 
ATOM      4  C   UNL d   1       7.624 -11.527 -23.632  0.00  0.00     0.003 A 
ATOM      5  C   UNL d   1       8.400 -10.544 -24.243  0.00  0.00     0.001 A 
ATOM      6  C   UNL d   1       8.072 -10.091 -25.523  0.00  0.00     0.021 A 
ENDROOT
BRANCH   1   7
ATOM      7  C   UNL d   1       6.675 -10.081 -27.556  0.00  0.00     0.178 C 
ATOM      8  O   UNL d   1       5.627 -10.186 -28.163  0.00  0.00    -0.646 OA
BRANCH   7   9
ATOM      9  O   UNL d   1       7.727  -9.432 -28.100  0.00  0.00    -0.773 OA
ATOM     10  H   UNL d   1       8.125  -8.971 -27.327  0.00  0.00     0.167 HD
ENDBRANCH   7   9
ENDBRANCH   1   7
BRANCH   2  11
ATOM     11  O   UNL d   1       5.108 -12.209 -26.158  0.00  0.00    -0.360 OA
ATOM     12  H   UNL d   1       4.845 -11.657 -26.925  0.00  0.00     0.217 HD
ENDBRANCH   2  11
TORSDOF 3
ENDMDL
MODEL 2
REMARK VINA RESULT:      -6.0      1.707      3.182
REMARK  3 active torsions:
REMARK  status: ('A' for Active; 'I' for Inactive)
REMARK    1  A    between atoms: C_1  and  O_3 
REMARK    2  A    between atoms: C_1  and  C_4 
REMARK    3  A    between atoms: C_5  and  O_10 
ROOT
ATOM      1  C   UNL d   1       7.025 -11.030 -25.219  0.00  0.00     0.070 A 
ATOM      2  C   UNL d   1       8.001 -10.954 -24.216  0.00  0.00     0.082 A 
ATOM      3  C   UNL d   1       8.977  -9.957 -24.254  0.00  0.00     0.037 A 
ATOM      4  C   UNL d   1       8.992  -9.031 -25.296  0.00  0.00     0.003 A 
ATOM      5  C   UNL d   1       8.031  -9.101 -26.304  0.00  0.00     0.001 A 
ATOM      6  C   UNL d   1       7.050 -10.095 -26.266  0.00  0.00     0.021 A 
ENDROOT
BRANCH   1   7
ATOM      7  C   UNL d   1       5.945 -12.049 -25.243  0.00  0.00     0.178 C 
ATOM      8  O   UNL d   1       5.685 -12.843 -24.360  0.00  0.00    -0.646 OA
BRANCH   7   9
ATOM      9  O   UNL d   1       5.234 -12.035 -26.391  0.00  0.00    -0.773 OA
ATOM     10  H   UNL d   1       4.937 -12.969 -26.478  0.00  0.00     0.167 HD
ENDBRANCH   7   9
ENDBRANCH   1   7
BRANCH   2  11
ATOM     11  O   UNL d   1       8.077 -11.819 -23.160  0.00  0.00    -0.360 OA
ATOM     12  H   UNL d   1       7.970 -12.727 -23.516  0.00  0.00     0.217 HD
ENDBRANCH   2  11
TORSDOF 3
ENDMDL
MODEL 3
REMARK VINA RESULT:      -6.0      2.746      4.156
REMARK  3 active torsions:
REMARK  status: ('A' for Active; 'I' for Inactive)
REMARK    1  A    between atoms: C_1  and  O_3 
REMARK    2  A    between atoms: C_1  and  C_4 
REMARK    3  A    between atoms: C_5  and  O_10 
ROOT
ATOM      1  C   UNL d   1       7.417  -9.694 -24.619  0.00  0.00     0.070 A 
ATOM      2  C   UNL d   1       8.013  -9.956 -25.861  0.00  0.00     0.082 A 
ATOM      3  C   UNL d   1       7.485  -9.404 -27.028  0.00  0.00     0.037 A 
ATOM      4  C   UNL d   1       6.353  -8.592 -26.970  0.00  0.00     0.003 A 
ATOM      5  C   UNL d   1       5.747  -8.330 -25.743  0.00  0.00     0.001 A 
ATOM      6  C   UNL d   1       6.277  -8.877 -24.571  0.00  0.00     0.021 A 
ENDROOT
BRANCH   1   7
ATOM      7  C   UNL d   1       7.926 -10.228 -23.331  0.00  0.00     0.178 C 
ATOM      8  O   UNL d   1       8.299  -9.574 -22.377  0.00  0.00    -0.646 OA
BRANCH   7   9
ATOM      9  O   UNL d   1       7.956 -11.579 -23.297  0.00  0.00    -0.773 OA
ATOM     10  H   UNL d   1       8.899 -11.784 -23.485  0.00  0.00     0.167 HD
ENDBRANCH   7   9
ENDBRANCH   1   7
BRANCH   2  11
ATOM     11  O   UNL d   1       9.117 -10.746 -26.024  0.00  0.00    -0.360 OA
ATOM     12  H   UNL d   1       9.357 -11.100 -25.141  0.00  0.00     0.217 HD
ENDBRANCH   2  11
TORSDOF 3
ENDMDL
MODEL 4
REMARK VINA RESULT:      -6.0      1.521      3.055
REMARK  3 active torsions:
REMARK  status: ('A' for Active; 'I' for Inactive)
REMARK    1  A    between atoms: C_1  and  O_3 
REMARK    2  A    between atoms: C_1  and  C_4 
REMARK    3  A    between atoms: C_5  and  O_10 
ROOT
ATOM      1  C   UNL d   1       7.124 -11.020 -24.874  0.00  0.00     0.070 A 
ATOM      2  C   UNL d   1       8.117 -10.635 -25.785  0.00  0.00     0.082 A 
ATOM      3  C   UNL d   1       9.128  -9.755 -25.398  0.00  0.00     0.037 A 
ATOM      4  C   UNL d   1       9.153  -9.244 -24.101  0.00  0.00     0.003 A 
ATOM      5  C   UNL d   1       8.166  -9.613 -23.188  0.00  0.00     0.001 A 
ATOM      6  C   UNL d   1       7.156 -10.499 -23.571  0.00  0.00     0.021 A 
ENDROOT
BRANCH   1   7
ATOM      7  C   UNL d   1       6.025 -11.963 -25.203  0.00  0.00     0.178 C 
ATOM      8  O   UNL d   1       5.397 -12.003 -26.242  0.00  0.00    -0.646 OA
BRANCH   7   9
ATOM      9  O   UNL d   1       5.752 -12.823 -24.197  0.00  0.00    -0.773 OA
ATOM     10  H   UNL d   1       4.790 -12.685 -24.044  0.00  0.00     0.167 HD
ENDBRANCH   7   9
ENDBRANCH   1   7
BRANCH   2  11
ATOM     11  O   UNL d   1       8.174 -11.072 -27.080  0.00  0.00    -0.360 OA
ATOM     12  H   UNL d   1       7.741 -10.391 -27.638  0.00  0.00     0.217 HD
ENDBRANCH   2  11
TORSDOF 3
ENDMDL
MODEL 5
REMARK VINA RESULT:      -6.0      1.403      2.365
REMARK  3 active torsions:
REMARK  status: ('A' for Active; 'I' for Inactive)
REMARK    1  A    between atoms: C_1  and  O_3 
REMARK    2  A    between atoms: C_1  and  C_4 
REMARK    3  A    between atoms: C_5  and  O_10 
ROOT
ATOM      1  C   UNL d   1       7.448 -11.136 -26.353  0.00  0.00     0.070 A 
ATOM      2  C   UNL d   1       8.432 -10.701 -25.454  0.00  0.00     0.082 A 
ATOM      3  C   UNL d   1       8.329 -10.999 -24.095  0.00  0.00     0.037 A 
ATOM      4  C   UNL d   1       7.240 -11.727 -23.618  0.00  0.00     0.003 A 
ATOM      5  C   UNL d   1       6.251 -12.159 -24.500  0.00  0.00     0.001 A 
ATOM      6  C   UNL d   1       6.355 -11.867 -25.863  0.00  0.00     0.021 A 
ENDROOT
BRANCH   1   7
ATOM      7  C   UNL d   1       7.493 -10.875 -27.813  0.00  0.00     0.178 C 
ATOM      8  O   UNL d   1       7.303 -11.689 -28.697  0.00  0.00    -0.646 OA
BRANCH   7   9
ATOM      9  O   UNL d   1       7.786  -9.590 -28.109  0.00  0.00    -0.773 OA
ATOM     10  H   UNL d   1       8.766  -9.602 -28.196  0.00  0.00     0.167 HD
ENDBRANCH   7   9
ENDBRANCH   1   7
BRANCH   2  11
ATOM     11  O   UNL d   1       9.531  -9.974 -25.821  0.00  0.00    -0.360 OA
ATOM     12  H   UNL d   1      10.298 -10.334 -25.328  0.00  0.00     0.217 HD
ENDBRANCH   2  11
TORSDOF 3
ENDMDL
MODEL 6
REMARK VINA RESULT:      -5.9      1.937      3.480
REMARK  3 active torsions:
REMARK  status: ('A' for Active; 'I' for Inactive)
REMARK    1  A    between atoms: C_1  and  O_3 
REMARK    2  A    between atoms: C_1  and  C_4 
REMARK    3  A    between atoms: C_5  and  O_10 
ROOT
ATOM      1  C   UNL d   1       6.277 -10.741 -25.068  0.00  0.00     0.070 A 
ATOM      2  C   UNL d   1       5.860 -10.876 -26.400  0.00  0.00     0.082 A 
ATOM      3  C   UNL d   1       5.705  -9.750 -27.210  0.00  0.00     0.037 A 
ATOM      4  C   UNL d   1       5.956  -8.478 -26.696  0.00  0.00     0.003 A 
ATOM      5  C   UNL d   1       6.363  -8.330 -25.371  0.00  0.00     0.001 A 
ATOM      6  C   UNL d   1       6.525  -9.456 -24.560  0.00  0.00     0.021 A 
ENDROOT
BRANCH   1   7
ATOM      7  C   UNL d   1       6.482 -11.888 -24.149  0.00  0.00     0.178 C 
ATOM      8  O   UNL d   1       5.829 -12.912 -24.119  0.00  0.00    -0.646 OA
BRANCH   7   9
ATOM      9  O   UNL d   1       7.505 -11.695 -23.288  0.00  0.00    -0.773 OA
ATOM     10  H   UNL d   1       7.064 -11.730 -22.409  0.00  0.00     0.167 HD
ENDBRANCH   7   9
ENDBRANCH   1   7
BRANCH   2  11
ATOM     11  O   UNL d   1       5.580 -12.076 -26.993  0.00  0.00    -0.360 OA
ATOM     12  H   UNL d   1       6.277 -12.241 -27.663  0.00  0.00     0.217 HD
ENDBRANCH   2  11
TORSDOF 3
ENDMDL
MODEL 7
REMARK VINA RESULT:      -5.9      2.687      3.407
REMARK  3 active torsions:
REMARK  status: ('A' for Active; 'I' for Inactive)
REMARK    1  A    between atoms: C_1  and  O_3 
REMARK    2  A    between atoms: C_1  and  C_4 
REMARK    3  A    between atoms: C_5  and  O_10 
ROOT
ATOM      1  C   UNL d   1       8.279 -10.119 -25.021  0.00  0.00     0.070 A 
ATOM      2  C   UNL d   1       7.546 -10.750 -24.006  0.00  0.00     0.082 A 
ATOM      3  C   UNL d   1       6.550 -11.674 -24.324  0.00  0.00     0.037 A 
ATOM      4  C   UNL d   1       6.270 -11.971 -25.657  0.00  0.00     0.003 A 
ATOM      5  C   UNL d   1       6.986 -11.344 -26.676  0.00  0.00     0.001 A 
ATOM      6  C   UNL d   1       7.989 -10.423 -26.360  0.00  0.00     0.021 A 
ENDROOT
BRANCH   1   7
ATOM      7  C   UNL d   1       9.364  -9.139 -24.766  0.00  0.00     0.178 C 
ATOM      8  O   UNL d   1      10.334  -8.938 -25.471  0.00  0.00    -0.646 OA
BRANCH   7   9
ATOM      9  O   UNL d   1       9.190  -8.449 -23.617  0.00  0.00    -0.773 OA
ATOM     10  H   UNL d   1       9.133  -7.517 -23.926  0.00  0.00     0.167 HD
ENDBRANCH   7   9
ENDBRANCH   1   7
BRANCH   2  11
ATOM     11  O   UNL d   1       7.738 -10.520 -22.672  0.00  0.00    -0.360 OA
ATOM     12  H   UNL d   1       7.722  -9.549 -22.537  0.00  0.00     0.217 HD
ENDBRANCH   2  11
TORSDOF 3
ENDMDL
MODEL 8
REMARK VINA RESULT:      -5.8      2.217      3.195
REMARK  3 active torsions:
REMARK  status: ('A' for Active; 'I' for Inactive)
REMARK    1  A    between atoms: C_1  and  O_3 
REMARK    2  A    between atoms: C_1  and  C_4 
REMARK    3  A    between atoms: C_5  and  O_10 
ROOT
ATOM      1  C   UNL d   1       6.566  -9.985 -26.377  0.00  0.00     0.070 A 
ATOM      2  C   UNL d   1       7.293 -10.347 -27.520  0.00  0.00     0.082 A 
ATOM      3  C   UNL d   1       7.347 -11.679 -27.930  0.00  0.00     0.037 A 
ATOM      4  C   UNL d   1       6.684 -12.665 -27.200  0.00  0.00     0.003 A 
ATOM      5  C   UNL d   1       5.965 -12.319 -26.058  0.00  0.00     0.001 A 
ATOM      6  C   UNL d   1       5.903 -10.985 -25.648  0.00  0.00     0.021 A 
ENDROOT
BRANCH   1   7
ATOM      7  C   UNL d   1       6.445  -8.590 -25.884  0.00  0.00     0.178 C 
ATOM      8  O   UNL d   1       6.401  -8.238 -24.722  0.00  0.00    -0.646 OA
BRANCH   7   9
ATOM      9  O   UNL d   1       6.374  -7.684 -26.884  0.00  0.00    -0.773 OA
ATOM     10  H   UNL d   1       7.307  -7.387 -26.979  0.00  0.00     0.167 HD
ENDBRANCH   7   9
ENDBRANCH   1   7
BRANCH   2  11
ATOM     11  O   UNL d   1       7.984  -9.457 -28.296  0.00  0.00    -0.360 OA
ATOM     12  H   UNL d   1       7.566  -8.578 -28.176  0.00  0.00     0.217 HD
ENDBRANCH   2  11
TORSDOF 3
ENDMDL
MODEL 9
REMARK VINA RESULT:      -5.7      1.254      2.051
REMARK  3 active torsions:
REMARK  status: ('A' for Active; 'I' for Inactive)
REMARK    1  A    between atoms: C_1  and  O_3 
REMARK    2  A    between atoms: C_1  and  C_4 
REMARK    3  A    between atoms: C_5  and  O_10 
ROOT
ATOM      1  C   UNL d   1       6.983  -9.989 -26.171  0.00  0.00     0.070 A 
ATOM      2  C   UNL d   1       6.095 -10.874 -26.798  0.00  0.00     0.082 A 
ATOM      3  C   UNL d   1       5.685 -12.041 -26.151  0.00  0.00     0.037 A 
ATOM      4  C   UNL d   1       6.164 -12.339 -24.876  0.00  0.00     0.003 A 
ATOM      5  C   UNL d   1       7.054 -11.471 -24.245  0.00  0.00     0.001 A 
ATOM      6  C   UNL d   1       7.460 -10.299 -24.888  0.00  0.00     0.021 A 
ENDROOT
BRANCH   1   7
ATOM      7  C   UNL d   1       7.452  -8.721 -26.784  0.00  0.00     0.178 C 
ATOM      8  O   UNL d   1       8.608  -8.404 -26.988  0.00  0.00    -0.646 OA
BRANCH   7   9
ATOM      9  O   UNL d   1       6.440  -7.889 -27.112  0.00  0.00    -0.773 OA
ATOM     10  H   UNL d   1       6.844  -7.309 -27.796  0.00  0.00     0.167 HD
ENDBRANCH   7   9
ENDBRANCH   1   7
BRANCH   2  11
ATOM     11  O   UNL d   1       5.577 -10.676 -28.048  0.00  0.00    -0.360 OA
ATOM     12  H   UNL d   1       4.976  -9.903 -27.997  0.00  0.00     0.217 HD
ENDBRANCH   2  11
TORSDOF 3
ENDMDL
