@<TRIPOS>MOLECULE
SAL
 16 16 0 0 0
SMALL
GASTEIGER

@<TRIPOS>ATOM
      1 C           0.9359    0.0877    0.0265 C.2     1  UNL1        0.3404
      2 O           0.2577    1.0970    0.0126 O.2     1  UNL1       -0.2450
      3 O           0.3585   -1.1328    0.0402 O.3     1  UNL1       -0.4770
      4 C           2.4188    0.0247    0.0381 C.ar    1  UNL1        0.1001
      5 C           3.1474   -1.1726    0.0541 C.ar    1  UNL1        0.1308
      6 C           4.5418   -1.1524    0.0812 C.ar    1  UNL1       -0.0194
      7 C           5.2241    0.0638    0.0844 C.ar    1  UNL1       -0.0583
      8 C           4.5120    1.2618    0.0602 C.ar    1  UNL1       -0.0608
      9 C           3.1147    1.2438    0.0389 C.ar    1  UNL1       -0.0442
     10 O           2.5717   -2.4144    0.0433 O.3     1  UNL1       -0.5059
     11 H          -0.6026   -0.9224    0.0457 H       1  UNL1        0.2954
     12 H           5.0951   -2.0879    0.0999 H       1  UNL1        0.0654
     13 H           6.3112    0.0746    0.1052 H       1  UNL1        0.0619
     14 H           5.0447    2.2100    0.0599 H       1  UNL1        0.0618
     15 H           2.5714    2.1872    0.0242 H       1  UNL1        0.0627
     16 H           1.6000   -2.2863    0.0139 H       1  UNL1        0.2922
@<TRIPOS>BOND
     1     1     2    2
     2     1     3    1
     3     1     4    1
     4     3    11    1
     5     4     5   ar
     6     4     9   ar
     7     5     6   ar
     8     5    10    1
     9     6     7   ar
    10     6    12    1
    11     7     8   ar
    12     7    13    1
    13     8     9   ar
    14     8    14    1
    15     9    15    1
    16    10    16    1
