REMARK  3 active torsions:
REMARK  status: ('A' for Active; 'I' for Inactive)
REMARK    1  A    between atoms: C_1  and  O_3 
REMARK    2  A    between atoms: C_1  and  C_4 
REMARK    3  A    between atoms: C_5  and  O_10 
ROOT
ATOM      1  C   UNL d   1       2.419   0.025   0.038  0.00  0.00     0.070 A 
ATOM      2  C   UNL d   1       3.147  -1.173   0.054  0.00  0.00     0.082 A 
ATOM      3  C   UNL d   1       4.542  -1.152   0.081  0.00  0.00     0.037 A 
ATOM      4  C   UNL d   1       5.224   0.064   0.084  0.00  0.00     0.003 A 
ATOM      5  C   UNL d   1       4.512   1.262   0.060  0.00  0.00     0.001 A 
ATOM      6  C   UNL d   1       3.115   1.244   0.039  0.00  0.00     0.021 A 
ENDROOT
BRANCH   1   7
ATOM      7  C   UNL d   1       0.936   0.088   0.026  0.00  0.00     0.178 C 
ATOM      8  O   UNL d   1       0.258   1.097   0.013  0.00  0.00    -0.646 OA
BRANCH   7   9
ATOM      9  O   UNL d   1       0.358  -1.133   0.040  0.00  0.00    -0.773 OA
ATOM     10  H   UNL d   1      -0.603  -0.922   0.046  0.00  0.00     0.167 HD
ENDBRANCH   7   9
ENDBRANCH   1   7
BRANCH   2  11
ATOM     11  O   UNL d   1       2.572  -2.414   0.043  0.00  0.00    -0.360 OA
ATOM     12  H   UNL d   1       1.600  -2.286   0.014  0.00  0.00     0.217 HD
ENDBRANCH   2  11
TORSDOF 3
