MODEL 1
REMARK VINA RESULT:      -9.0      0.000      0.000
REMARK  12 active torsions:
REMARK  status: ('A' for Active; 'I' for Inactive)
REMARK    1  A    between atoms: C1_2  and  N2_3 
REMARK    2  A    between atoms: C4_9  and  C7_13 
REMARK    3  A    between atoms: C7_13  and  N6_14 
REMARK    4  A    between atoms: N6_14  and  C11_18 
REMARK    5  A    between atoms: C8_15  and  C14_21 
REMARK       I    between atoms: C14_21  and  N_23 
REMARK    6  A    between atoms: N_23  and  CA_24 
REMARK    7  A    between atoms: CA_24  and  CB_25 
REMARK    8  A    between atoms: CA_24  and  C_30 
REMARK    9  A    between atoms: CB_25  and  CG_26 
REMARK   10  A    between atoms: CG_26  and  CD_27 
REMARK   11  A    between atoms: CD_27  and  OE2_29 
REMARK   12  A    between atoms: C_30  and  OXT_32 
ROOT
ATOM      1  C8  <1> d   1      19.320  20.279  11.119  0.00  0.00     0.032 A 
ATOM      2  C9  <1> d   1      18.620  20.077   9.925  0.00  0.00     0.019 A 
ATOM      3  C10 <1> d   1      19.310  19.810   8.735  0.00  0.00     0.030 A 
ATOM      4  C11 <1> d   1      20.702  19.685   8.719  0.00  0.00     0.028 A 
ATOM      5  C12 <1> d   1      21.384  19.825   9.936  0.00  0.00     0.030 A 
ATOM      6  C13 <1> d   1      20.707  20.125  11.126  0.00  0.00     0.019 A 
ENDROOT
BRANCH   4   7
ATOM      7  N6  <1> d   1      21.420  19.478   7.564  0.00  0.00    -0.384 N 
ATOM      8  H7  <1> d   1      21.487  18.539   7.173  0.00  0.00     0.160 HD
BRANCH   7   9
ATOM      9  C7  <1> d   1      22.325  20.450   6.970  0.00  0.00     0.180 C 
BRANCH   9  10
ATOM     10  C4  <1> d   1      21.605  21.270   5.914  0.00  0.00     0.070 A 
ATOM     11  N4  <1> d   1      20.694  20.651   5.114  0.00  0.00    -0.241 NA
ATOM     12  C3  <1> d   1      20.031  21.461   4.246  0.00  0.00     0.173 A 
ATOM     13  C2  <1> d   1      18.973  20.893   3.360  0.00  0.00     0.302 A 
ATOM     14  C6  <1> d   1      20.260  22.830   4.150  0.00  0.00     0.164 A 
ATOM     15  N3  <1> d   1      18.224  21.745   2.562  0.00  0.00    -0.179 NA
ATOM     16  O1  <1> d   1      18.789  19.679   3.359  0.00  0.00    -0.263 OA
ATOM     17  C1  <1> d   1      18.528  23.001   2.551  0.00  0.00     0.182 A 
ATOM     18  N1  <1> d   1      19.527  23.587   3.247  0.00  0.00    -0.314 N 
ATOM     19  H1  <1> d   1      19.647  24.585   3.306  0.00  0.00     0.170 HD
ATOM     20  N5  <1> d   1      21.190  23.440   4.922  0.00  0.00    -0.239 NA
ATOM     21  C5  <1> d   1      21.850  22.636   5.799  0.00  0.00     0.147 A 
BRANCH  17  22
ATOM     22  N2  <1> d   1      17.810  23.868   1.798  0.00  0.00    -0.272 NA
ATOM     23  H2  <1> d   1      17.240  23.454   1.074  0.00  0.00     0.127 HD
ATOM     24  H3  <1> d   1      17.258  24.490   2.389  0.00  0.00     0.127 HD
ENDBRANCH  17  22
ENDBRANCH   9  10
ENDBRANCH   7   9
ENDBRANCH   4   7
BRANCH   1  25
ATOM     25  C14 <1> d   1      18.551  20.641  12.343  0.00  0.00     0.252 C 
ATOM     26  O2  <1> d   1      18.135  21.784  12.487  0.00  0.00    -0.268 OA
ATOM     27  N   GLU d   1      18.376  19.651  13.288  0.00  0.00    -0.343 N 
ATOM     28  H   GLU d   1      17.660  19.752  14.000  0.00  0.00     0.163 HD
BRANCH  27  29
ATOM     29  CA  GLU d   1      18.904  18.300  13.083  0.00  0.00     0.183 C 
BRANCH  29  30
ATOM     30  CB  GLU d   1      19.500  17.700  14.362  0.00  0.00     0.046 C 
BRANCH  30  31
ATOM     31  CG  GLU d   1      19.265  18.539  15.620  0.00  0.00     0.112 C 
BRANCH  31  32
ATOM     32  CD  GLU d   1      17.969  18.149  16.275  0.00  0.00     0.139 C 
ATOM     33  OE1 GLU d   1      16.858  18.153  15.773  0.00  0.00    -0.650 OA
BRANCH  32  34
ATOM     34  OE2 GLU d   1      18.131  17.805  17.567  0.00  0.00    -0.776 OA
ATOM     35  HE2 GLU d   1      18.889  17.183  17.548  0.00  0.00     0.167 HD
ENDBRANCH  32  34
ENDBRANCH  31  32
ENDBRANCH  30  31
ENDBRANCH  29  30
BRANCH  29  36
ATOM     36  C   GLU d   1      17.878  17.345  12.464  0.00  0.00     0.163 C 
ATOM     37  O   GLU d   1      18.115  16.320  11.844  0.00  0.00    -0.648 OA
BRANCH  36  38
ATOM     38  OXT GLU d   1      16.591  17.749  12.607  0.00  0.00    -0.775 OA
ATOM     39  HXT GLU d   1      16.132  17.299  11.862  0.00  0.00     0.167 HD
ENDBRANCH  36  38
ENDBRANCH  29  36
ENDBRANCH  27  29
ENDBRANCH   1  25
TORSDOF 12
ENDMDL
MODEL 2
REMARK VINA RESULT:      -8.5      3.063      5.109
REMARK  12 active torsions:
REMARK  status: ('A' for Active; 'I' for Inactive)
REMARK    1  A    between atoms: C1_2  and  N2_3 
REMARK    2  A    between atoms: C4_9  and  C7_13 
REMARK    3  A    between atoms: C7_13  and  N6_14 
REMARK    4  A    between atoms: N6_14  and  C11_18 
REMARK    5  A    between atoms: C8_15  and  C14_21 
REMARK       I    between atoms: C14_21  and  N_23 
REMARK    6  A    between atoms: N_23  and  CA_24 
REMARK    7  A    between atoms: CA_24  and  CB_25 
REMARK    8  A    between atoms: CA_24  and  C_30 
REMARK    9  A    between atoms: CB_25  and  CG_26 
REMARK   10  A    between atoms: CG_26  and  CD_27 
REMARK   11  A    between atoms: CD_27  and  OE2_29 
REMARK   12  A    between atoms: C_30  and  OXT_32 
ROOT
ATOM      1  C8  <1> d   1      20.364  17.851  11.238  0.00  0.00     0.032 A 
ATOM      2  C9  <1> d   1      20.770  17.103  10.128  0.00  0.00     0.019 A 
ATOM      3  C10 <1> d   1      22.081  17.205   9.645  0.00  0.00     0.030 A 
ATOM      4  C11 <1> d   1      23.027  18.010  10.285  0.00  0.00     0.028 A 
ATOM      5  C12 <1> d   1      22.623  18.703  11.434  0.00  0.00     0.030 A 
ATOM      6  C13 <1> d   1      21.305  18.634  11.908  0.00  0.00     0.019 A 
ENDROOT
BRANCH   4   7
ATOM      7  N6  <1> d   1      24.307  18.180   9.810  0.00  0.00    -0.384 N 
ATOM      8  H7  <1> d   1      24.815  17.379   9.435  0.00  0.00     0.160 HD
BRANCH   7   9
ATOM      9  C7  <1> d   1      25.117  19.367  10.028  0.00  0.00     0.180 C 
BRANCH   9  10
ATOM     10  C4  <1> d   1      24.792  20.429   8.992  0.00  0.00     0.070 A 
ATOM     11  N4  <1> d   1      24.156  20.054   7.849  0.00  0.00    -0.241 NA
ATOM     12  C3  <1> d   1      23.827  21.067   7.003  0.00  0.00     0.173 A 
ATOM     13  C2  <1> d   1      23.080  20.771   5.745  0.00  0.00     0.302 A 
ATOM     14  C6  <1> d   1      24.122  22.402   7.257  0.00  0.00     0.164 A 
ATOM     15  N3  <1> d   1      22.648  21.821   4.947  0.00  0.00    -0.179 NA
ATOM     16  O1  <1> d   1      22.863  19.601   5.445  0.00  0.00    -0.263 OA
ATOM     17  C1  <1> d   1      22.984  23.023   5.281  0.00  0.00     0.182 A 
ATOM     18  N1  <1> d   1      23.735  23.376   6.347  0.00  0.00    -0.314 N 
ATOM     19  H1  <1> d   1      23.865  24.331   6.638  0.00  0.00     0.170 HD
ATOM     20  N5  <1> d   1      24.784  22.772   8.379  0.00  0.00    -0.239 NA
ATOM     21  C5  <1> d   1      25.108  21.764   9.232  0.00  0.00     0.147 A 
BRANCH  17  22
ATOM     22  N2  <1> d   1      22.568  24.077   4.538  0.00  0.00    -0.272 NA
ATOM     23  H2  <1> d   1      21.645  24.429   4.753  0.00  0.00     0.127 HD
ATOM     24  H3  <1> d   1      23.259  24.827   4.552  0.00  0.00     0.127 HD
ENDBRANCH  17  22
ENDBRANCH   9  10
ENDBRANCH   7   9
ENDBRANCH   4   7
BRANCH   1  25
ATOM     25  C14 <1> d   1      18.939  17.774  11.668  0.00  0.00     0.252 C 
ATOM     26  O2  <1> d   1      18.500  16.735  12.143  0.00  0.00    -0.268 OA
ATOM     27  N   GLU d   1      18.165  18.900  11.471  0.00  0.00    -0.343 N 
ATOM     28  H   GLU d   1      17.285  19.001  11.967  0.00  0.00     0.163 HD
BRANCH  27  29
ATOM     29  CA  GLU d   1      18.726  20.119  10.885  0.00  0.00     0.183 C 
BRANCH  29  30
ATOM     30  CB  GLU d   1      18.195  20.393   9.474  0.00  0.00     0.046 C 
BRANCH  30  31
ATOM     31  CG  GLU d   1      19.107  21.275   8.619  0.00  0.00     0.112 C 
BRANCH  31  32
ATOM     32  CD  GLU d   1      20.533  20.808   8.721  0.00  0.00     0.139 C 
ATOM     33  OE1 GLU d   1      21.409  21.264   9.435  0.00  0.00    -0.650 OA
BRANCH  32  34
ATOM     34  OE2 GLU d   1      20.803  19.798   7.873  0.00  0.00    -0.776 OA
ATOM     35  HE2 GLU d   1      20.319  19.036   8.257  0.00  0.00     0.167 HD
ENDBRANCH  32  34
ENDBRANCH  31  32
ENDBRANCH  30  31
ENDBRANCH  29  30
BRANCH  29  36
ATOM     36  C   GLU d   1      18.547  21.350  11.780  0.00  0.00     0.163 C 
ATOM     37  O   GLU d   1      17.506  21.740  12.286  0.00  0.00    -0.648 OA
BRANCH  36  38
ATOM     38  OXT GLU d   1      19.681  22.072  11.959  0.00  0.00    -0.775 OA
ATOM     39  HXT GLU d   1      19.674  22.264  12.924  0.00  0.00     0.167 HD
ENDBRANCH  36  38
ENDBRANCH  29  36
ENDBRANCH  27  29
ENDBRANCH   1  25
TORSDOF 12
ENDMDL
MODEL 3
REMARK VINA RESULT:      -8.5      1.189      1.924
REMARK  12 active torsions:
REMARK  status: ('A' for Active; 'I' for Inactive)
REMARK    1  A    between atoms: C1_2  and  N2_3 
REMARK    2  A    between atoms: C4_9  and  C7_13 
REMARK    3  A    between atoms: C7_13  and  N6_14 
REMARK    4  A    between atoms: N6_14  and  C11_18 
REMARK    5  A    between atoms: C8_15  and  C14_21 
REMARK       I    between atoms: C14_21  and  N_23 
REMARK    6  A    between atoms: N_23  and  CA_24 
REMARK    7  A    between atoms: CA_24  and  CB_25 
REMARK    8  A    between atoms: CA_24  and  C_30 
REMARK    9  A    between atoms: CB_25  and  CG_26 
REMARK   10  A    between atoms: CG_26  and  CD_27 
REMARK   11  A    between atoms: CD_27  and  OE2_29 
REMARK   12  A    between atoms: C_30  and  OXT_32 
ROOT
ATOM      1  C8  <1> d   1      19.093  20.501  11.013  0.00  0.00     0.032 A 
ATOM      2  C9  <1> d   1      20.481  20.673  11.029  0.00  0.00     0.019 A 
ATOM      3  C10 <1> d   1      21.249  20.344   9.904  0.00  0.00     0.030 A 
ATOM      4  C11 <1> d   1      20.649  19.891   8.726  0.00  0.00     0.028 A 
ATOM      5  C12 <1> d   1      19.252  19.785   8.704  0.00  0.00     0.030 A 
ATOM      6  C13 <1> d   1      18.475  20.080   9.834  0.00  0.00     0.019 A 
ENDROOT
BRANCH   4   7
ATOM      7  N6  <1> d   1      21.372  19.506   7.621  0.00  0.00    -0.384 N 
ATOM      8  H7  <1> d   1      21.413  18.520   7.365  0.00  0.00     0.160 HD
BRANCH   7   9
ATOM      9  C7  <1> d   1      22.312  20.358   6.912  0.00  0.00     0.180 C 
BRANCH   9  10
ATOM     10  C4  <1> d   1      21.587  21.209   5.884  0.00  0.00     0.070 A 
ATOM     11  N4  <1> d   1      20.672  20.614   5.071  0.00  0.00    -0.241 NA
ATOM     12  C3  <1> d   1      20.005  21.450   4.231  0.00  0.00     0.173 A 
ATOM     13  C2  <1> d   1      18.942  20.908   3.334  0.00  0.00     0.302 A 
ATOM     14  C6  <1> d   1      20.233  22.821   4.175  0.00  0.00     0.164 A 
ATOM     15  N3  <1> d   1      18.189  21.784   2.566  0.00  0.00    -0.179 NA
ATOM     16  O1  <1> d   1      18.758  19.695   3.297  0.00  0.00    -0.263 OA
ATOM     17  C1  <1> d   1      18.493  23.040   2.591  0.00  0.00     0.182 A 
ATOM     18  N1  <1> d   1      19.495  23.605   3.299  0.00  0.00    -0.314 N 
ATOM     19  H1  <1> d   1      19.615  24.601   3.387  0.00  0.00     0.170 HD
ATOM     20  N5  <1> d   1      21.166  23.408   4.961  0.00  0.00    -0.239 NA
ATOM     21  C5  <1> d   1      21.831  22.579   5.809  0.00  0.00     0.147 A 
BRANCH  17  22
ATOM     22  N2  <1> d   1      17.770  23.929   1.869  0.00  0.00    -0.272 NA
ATOM     23  H2  <1> d   1      18.301  24.660   1.414  0.00  0.00     0.127 HD
ATOM     24  H3  <1> d   1      17.162  23.450   1.205  0.00  0.00     0.127 HD
ENDBRANCH  17  22
ENDBRANCH   9  10
ENDBRANCH   7   9
ENDBRANCH   4   7
BRANCH   1  25
ATOM     25  C14 <1> d   1      18.325  20.785  12.258  0.00  0.00     0.252 C 
ATOM     26  O2  <1> d   1      17.835  21.893  12.434  0.00  0.00    -0.268 OA
ATOM     27  N   GLU d   1      18.235  19.765  13.184  0.00  0.00    -0.343 N 
ATOM     28  H   GLU d   1      17.527  19.803  13.910  0.00  0.00     0.163 HD
BRANCH  27  29
ATOM     29  CA  GLU d   1      18.849  18.458  12.941  0.00  0.00     0.183 C 
BRANCH  29  30
ATOM     30  CB  GLU d   1      19.585  17.915  14.172  0.00  0.00     0.046 C 
BRANCH  30  31
ATOM     31  CG  GLU d   1      21.060  17.591  13.931  0.00  0.00     0.112 C 
BRANCH  31  32
ATOM     32  CD  GLU d   1      21.218  16.160  13.494  0.00  0.00     0.139 C 
ATOM     33  OE1 GLU d   1      22.064  15.708  12.743  0.00  0.00    -0.650 OA
BRANCH  32  34
ATOM     34  OE2 GLU d   1      20.259  15.362  14.000  0.00  0.00    -0.776 OA
ATOM     35  HE2 GLU d   1      20.633  14.460  13.904  0.00  0.00     0.167 HD
ENDBRANCH  32  34
ENDBRANCH  31  32
ENDBRANCH  30  31
ENDBRANCH  29  30
BRANCH  29  36
ATOM     36  C   GLU d   1      17.858  17.422  12.401  0.00  0.00     0.163 C 
ATOM     37  O   GLU d   1      18.130  16.346  11.892  0.00  0.00    -0.648 OA
BRANCH  36  38
ATOM     38  OXT GLU d   1      16.560  17.809  12.477  0.00  0.00    -0.775 OA
ATOM     39  HXT GLU d   1      16.087  16.968  12.672  0.00  0.00     0.167 HD
ENDBRANCH  36  38
ENDBRANCH  29  36
ENDBRANCH  27  29
ENDBRANCH   1  25
TORSDOF 12
ENDMDL
MODEL 4
REMARK VINA RESULT:      -8.4      2.274      3.763
REMARK  12 active torsions:
REMARK  status: ('A' for Active; 'I' for Inactive)
REMARK    1  A    between atoms: C1_2  and  N2_3 
REMARK    2  A    between atoms: C4_9  and  C7_13 
REMARK    3  A    between atoms: C7_13  and  N6_14 
REMARK    4  A    between atoms: N6_14  and  C11_18 
REMARK    5  A    between atoms: C8_15  and  C14_21 
REMARK       I    between atoms: C14_21  and  N_23 
REMARK    6  A    between atoms: N_23  and  CA_24 
REMARK    7  A    between atoms: CA_24  and  CB_25 
REMARK    8  A    between atoms: CA_24  and  C_30 
REMARK    9  A    between atoms: CB_25  and  CG_26 
REMARK   10  A    between atoms: CG_26  and  CD_27 
REMARK   11  A    between atoms: CD_27  and  OE2_29 
REMARK   12  A    between atoms: C_30  and  OXT_32 
ROOT
ATOM      1  C8  <1> d   1      20.793  20.184  13.577  0.00  0.00     0.032 A 
ATOM      2  C9  <1> d   1      19.872  21.229  13.464  0.00  0.00     0.019 A 
ATOM      3  C10 <1> d   1      19.548  21.755  12.206  0.00  0.00     0.030 A 
ATOM      4  C11 <1> d   1      20.089  21.218  11.036  0.00  0.00     0.028 A 
ATOM      5  C12 <1> d   1      20.961  20.127  11.161  0.00  0.00     0.030 A 
ATOM      6  C13 <1> d   1      21.319  19.614  12.416  0.00  0.00     0.019 A 
ENDROOT
BRANCH   4   7
ATOM      7  N6  <1> d   1      19.839  21.741   9.788  0.00  0.00    -0.384 N 
ATOM      8  H7  <1> d   1      19.320  22.615   9.703  0.00  0.00     0.160 HD
BRANCH   7   9
ATOM      9  C7  <1> d   1      20.028  21.021   8.539  0.00  0.00     0.180 C 
BRANCH   9  10
ATOM     10  C4  <1> d   1      21.067  21.716   7.677  0.00  0.00     0.070 A 
ATOM     11  N4  <1> d   1      20.694  22.189   6.457  0.00  0.00    -0.241 NA
ATOM     12  C3  <1> d   1      21.654  22.869   5.775  0.00  0.00     0.173 A 
ATOM     13  C2  <1> d   1      21.334  23.475   4.448  0.00  0.00     0.302 A 
ATOM     14  C6  <1> d   1      22.942  23.069   6.260  0.00  0.00     0.164 A 
ATOM     15  N3  <1> d   1      22.284  24.263   3.814  0.00  0.00    -0.179 NA
ATOM     16  O1  <1> d   1      20.234  23.262   3.949  0.00  0.00    -0.263 OA
ATOM     17  C1  <1> d   1      23.450  24.376   4.358  0.00  0.00     0.182 A 
ATOM     18  N1  <1> d   1      23.857  23.789   5.505  0.00  0.00    -0.314 N 
ATOM     19  H1  <1> d   1      24.730  24.006   5.956  0.00  0.00     0.170 HD
ATOM     20  N5  <1> d   1      23.323  22.570   7.460  0.00  0.00    -0.239 NA
ATOM     21  C5  <1> d   1      22.364  21.896   8.151  0.00  0.00     0.147 A 
BRANCH  17  22
ATOM     22  N2  <1> d   1      24.399  25.150   3.779  0.00  0.00    -0.272 NA
ATOM     23  H2  <1> d   1      24.312  26.144   3.940  0.00  0.00     0.127 HD
ATOM     24  H3  <1> d   1      25.333  24.820   4.019  0.00  0.00     0.127 HD
ENDBRANCH  17  22
ENDBRANCH   9  10
ENDBRANCH   7   9
ENDBRANCH   4   7
BRANCH   1  25
ATOM     25  C14 <1> d   1      21.171  19.710  14.939  0.00  0.00     0.252 C 
ATOM     26  O2  <1> d   1      22.221  20.084  15.447  0.00  0.00    -0.268 OA
ATOM     27  N   GLU d   1      20.309  18.825  15.555  0.00  0.00    -0.343 N 
ATOM     28  H   GLU d   1      20.371  18.674  16.557  0.00  0.00     0.163 HD
BRANCH  27  29
ATOM     29  CA  GLU d   1      19.071  18.391  14.906  0.00  0.00     0.183 C 
BRANCH  29  30
ATOM     30  CB  GLU d   1      19.210  17.025  14.225  0.00  0.00     0.046 C 
BRANCH  30  31
ATOM     31  CG  GLU d   1      18.989  17.050  12.711  0.00  0.00     0.112 C 
BRANCH  31  32
ATOM     32  CD  GLU d   1      17.754  17.841  12.376  0.00  0.00     0.139 C 
ATOM     33  OE1 GLU d   1      17.703  18.957  11.888  0.00  0.00    -0.650 OA
BRANCH  32  34
ATOM     34  OE2 GLU d   1      16.624  17.193  12.715  0.00  0.00    -0.776 OA
ATOM     35  HE2 GLU d   1      16.525  17.385  13.672  0.00  0.00     0.167 HD
ENDBRANCH  32  34
ENDBRANCH  31  32
ENDBRANCH  30  31
ENDBRANCH  29  30
BRANCH  29  36
ATOM     36  C   GLU d   1      17.864  18.405  15.851  0.00  0.00     0.163 C 
ATOM     37  O   GLU d   1      16.690  18.272  15.539  0.00  0.00    -0.648 OA
BRANCH  36  38
ATOM     38  OXT GLU d   1      18.181  18.639  17.148  0.00  0.00    -0.775 OA
ATOM     39  HXT GLU d   1      18.336  19.610  17.169  0.00  0.00     0.167 HD
ENDBRANCH  36  38
ENDBRANCH  29  36
ENDBRANCH  27  29
ENDBRANCH   1  25
TORSDOF 12
ENDMDL
MODEL 5
REMARK VINA RESULT:      -8.4      2.602      3.119
REMARK  12 active torsions:
REMARK  status: ('A' for Active; 'I' for Inactive)
REMARK    1  A    between atoms: C1_2  and  N2_3 
REMARK    2  A    between atoms: C4_9  and  C7_13 
REMARK    3  A    between atoms: C7_13  and  N6_14 
REMARK    4  A    between atoms: N6_14  and  C11_18 
REMARK    5  A    between atoms: C8_15  and  C14_21 
REMARK       I    between atoms: C14_21  and  N_23 
REMARK    6  A    between atoms: N_23  and  CA_24 
REMARK    7  A    between atoms: CA_24  and  CB_25 
REMARK    8  A    between atoms: CA_24  and  C_30 
REMARK    9  A    between atoms: CB_25  and  CG_26 
REMARK   10  A    between atoms: CG_26  and  CD_27 
REMARK   11  A    between atoms: CD_27  and  OE2_29 
REMARK   12  A    between atoms: C_30  and  OXT_32 
ROOT
ATOM      1  C8  <1> d   1      19.471  20.306  11.191  0.00  0.00     0.032 A 
ATOM      2  C9  <1> d   1      19.294  19.614   9.989  0.00  0.00     0.019 A 
ATOM      3  C10 <1> d   1      20.401  19.234   9.219  0.00  0.00     0.030 A 
ATOM      4  C11 <1> d   1      21.705  19.485   9.655  0.00  0.00     0.028 A 
ATOM      5  C12 <1> d   1      21.868  20.121  10.893  0.00  0.00     0.030 A 
ATOM      6  C13 <1> d   1      20.767  20.536  11.656  0.00  0.00     0.019 A 
ENDROOT
BRANCH   4   7
ATOM      7  N6  <1> d   1      22.816  19.177   8.903  0.00  0.00    -0.384 N 
ATOM      8  H7  <1> d   1      22.869  18.275   8.430  0.00  0.00     0.160 HD
BRANCH   7   9
ATOM      9  C7  <1> d   1      24.061  19.927   8.925  0.00  0.00     0.180 C 
BRANCH   9  10
ATOM     10  C4  <1> d   1      24.156  20.833   7.710  0.00  0.00     0.070 A 
ATOM     11  N4  <1> d   1      23.106  21.647   7.418  0.00  0.00    -0.241 NA
ATOM     12  C3  <1> d   1      23.292  22.487   6.364  0.00  0.00     0.173 A 
ATOM     13  C2  <1> d   1      22.223  23.459   5.991  0.00  0.00     0.302 A 
ATOM     14  C6  <1> d   1      24.460  22.520   5.609  0.00  0.00     0.164 A 
ATOM     15  N3  <1> d   1      22.467  24.388   4.990  0.00  0.00    -0.179 NA
ATOM     16  O1  <1> d   1      21.148  23.415   6.582  0.00  0.00    -0.263 OA
ATOM     17  C1  <1> d   1      23.590  24.323   4.353  0.00  0.00     0.182 A 
ATOM     18  N1  <1> d   1      24.574  23.420   4.559  0.00  0.00    -0.314 N 
ATOM     19  H1  <1> d   1      25.481  23.485   4.127  0.00  0.00     0.170 HD
ATOM     20  N5  <1> d   1      25.492  21.687   5.880  0.00  0.00    -0.239 NA
ATOM     21  C5  <1> d   1      25.315  20.851   6.938  0.00  0.00     0.147 A 
BRANCH  17  22
ATOM     22  N2  <1> d   1      23.873  25.222   3.381  0.00  0.00    -0.272 NA
ATOM     23  H2  <1> d   1      23.155  25.908   3.194  0.00  0.00     0.127 HD
ATOM     24  H3  <1> d   1      24.773  25.670   3.552  0.00  0.00     0.127 HD
ENDBRANCH  17  22
ENDBRANCH   9  10
ENDBRANCH   7   9
ENDBRANCH   4   7
BRANCH   1  25
ATOM     25  C14 <1> d   1      18.264  20.764  11.936  0.00  0.00     0.252 C 
ATOM     26  O2  <1> d   1      17.756  21.846  11.670  0.00  0.00    -0.268 OA
ATOM     27  N   GLU d   1      17.794  19.935  12.934  0.00  0.00    -0.343 N 
ATOM     28  H   GLU d   1      16.851  20.057  13.290  0.00  0.00     0.163 HD
BRANCH  27  29
ATOM     29  CA  GLU d   1      18.440  18.655  13.230  0.00  0.00     0.183 C 
BRANCH  29  30
ATOM     30  CB  GLU d   1      18.582  18.400  14.735  0.00  0.00     0.046 C 
BRANCH  30  31
ATOM     31  CG  GLU d   1      17.252  18.228  15.471  0.00  0.00     0.112 C 
BRANCH  31  32
ATOM     32  CD  GLU d   1      17.454  18.363  16.955  0.00  0.00     0.139 C 
ATOM     33  OE1 GLU d   1      16.722  18.926  17.751  0.00  0.00    -0.650 OA
BRANCH  32  34
ATOM     34  OE2 GLU d   1      18.610  17.810  17.368  0.00  0.00    -0.776 OA
ATOM     35  HE2 GLU d   1      18.352  17.296  18.161  0.00  0.00     0.167 HD
ENDBRANCH  32  34
ENDBRANCH  31  32
ENDBRANCH  30  31
ENDBRANCH  29  30
BRANCH  29  36
ATOM     36  C   GLU d   1      17.759  17.467  12.541  0.00  0.00     0.163 C 
ATOM     37  O   GLU d   1      18.305  16.467  12.101  0.00  0.00    -0.648 OA
BRANCH  36  38
ATOM     38  OXT GLU d   1      16.420  17.613  12.387  0.00  0.00    -0.775 OA
ATOM     39  HXT GLU d   1      16.308  17.633  11.409  0.00  0.00     0.167 HD
ENDBRANCH  36  38
ENDBRANCH  29  36
ENDBRANCH  27  29
ENDBRANCH   1  25
TORSDOF 12
ENDMDL
MODEL 6
REMARK VINA RESULT:      -8.4      2.380      4.168
REMARK  12 active torsions:
REMARK  status: ('A' for Active; 'I' for Inactive)
REMARK    1  A    between atoms: C1_2  and  N2_3 
REMARK    2  A    between atoms: C4_9  and  C7_13 
REMARK    3  A    between atoms: C7_13  and  N6_14 
REMARK    4  A    between atoms: N6_14  and  C11_18 
REMARK    5  A    between atoms: C8_15  and  C14_21 
REMARK       I    between atoms: C14_21  and  N_23 
REMARK    6  A    between atoms: N_23  and  CA_24 
REMARK    7  A    between atoms: CA_24  and  CB_25 
REMARK    8  A    between atoms: CA_24  and  C_30 
REMARK    9  A    between atoms: CB_25  and  CG_26 
REMARK   10  A    between atoms: CG_26  and  CD_27 
REMARK   11  A    between atoms: CD_27  and  OE2_29 
REMARK   12  A    between atoms: C_30  and  OXT_32 
ROOT
ATOM      1  C8  <1> d   1      21.075  20.067  14.108  0.00  0.00     0.032 A 
ATOM      2  C9  <1> d   1      21.791  19.629  12.988  0.00  0.00     0.019 A 
ATOM      3  C10 <1> d   1      21.529  20.170  11.723  0.00  0.00     0.030 A 
ATOM      4  C11 <1> d   1      20.593  21.193  11.554  0.00  0.00     0.028 A 
ATOM      5  C12 <1> d   1      19.931  21.668  12.694  0.00  0.00     0.030 A 
ATOM      6  C13 <1> d   1      20.160  21.111  13.961  0.00  0.00     0.019 A 
ENDROOT
BRANCH   4   7
ATOM      7  N6  <1> d   1      20.268  21.712  10.321  0.00  0.00    -0.384 N 
ATOM      8  H7  <1> d   1      20.373  22.712  10.152  0.00  0.00     0.160 HD
BRANCH   7   9
ATOM      9  C7  <1> d   1      19.533  20.995   9.292  0.00  0.00     0.180 C 
BRANCH   9  10
ATOM     10  C4  <1> d   1      20.457  20.610   8.150  0.00  0.00     0.070 A 
ATOM     11  N4  <1> d   1      20.584  21.463   7.097  0.00  0.00    -0.241 NA
ATOM     12  C3  <1> d   1      21.487  21.092   6.150  0.00  0.00     0.173 A 
ATOM     13  C2  <1> d   1      21.742  21.982   4.978  0.00  0.00     0.302 A 
ATOM     14  C6  <1> d   1      22.231  19.919   6.219  0.00  0.00     0.164 A 
ATOM     15  N3  <1> d   1      22.746  21.651   4.080  0.00  0.00    -0.179 NA
ATOM     16  O1  <1> d   1      21.055  22.990   4.838  0.00  0.00    -0.263 OA
ATOM     17  C1  <1> d   1      23.372  20.533   4.242  0.00  0.00     0.182 A 
ATOM     18  N1  <1> d   1      23.144  19.625   5.216  0.00  0.00    -0.314 N 
ATOM     19  H1  <1> d   1      23.739  18.829   5.379  0.00  0.00     0.170 HD
ATOM     20  N5  <1> d   1      22.081  19.055   7.251  0.00  0.00    -0.239 NA
ATOM     21  C5  <1> d   1      21.185  19.425   8.205  0.00  0.00     0.147 A 
BRANCH  17  22
ATOM     22  N2  <1> d   1      24.370  20.182   3.397  0.00  0.00    -0.272 NA
ATOM     23  H2  <1> d   1      24.501  20.787   2.597  0.00  0.00     0.127 HD
ATOM     24  H3  <1> d   1      25.245  20.049   3.903  0.00  0.00     0.127 HD
ENDBRANCH  17  22
ENDBRANCH   9  10
ENDBRANCH   7   9
ENDBRANCH   4   7
BRANCH   1  25
ATOM     25  C14 <1> d   1      21.328  19.407  15.419  0.00  0.00     0.252 C 
ATOM     26  O2  <1> d   1      22.360  19.643  16.034  0.00  0.00    -0.268 OA
ATOM     27  N   GLU d   1      20.373  18.515  15.865  0.00  0.00    -0.343 N 
ATOM     28  H   GLU d   1      20.355  18.240  16.842  0.00  0.00     0.163 HD
BRANCH  27  29
ATOM     29  CA  GLU d   1      19.158  18.250  15.091  0.00  0.00     0.183 C 
BRANCH  29  30
ATOM     30  CB  GLU d   1      19.241  16.944  14.293  0.00  0.00     0.046 C 
BRANCH  30  31
ATOM     31  CG  GLU d   1      19.268  17.135  12.775  0.00  0.00     0.112 C 
BRANCH  31  32
ATOM     32  CD  GLU d   1      18.048  17.888  12.321  0.00  0.00     0.139 C 
ATOM     33  OE1 GLU d   1      18.011  18.999  11.821  0.00  0.00    -0.650 OA
BRANCH  32  34
ATOM     34  OE2 GLU d   1      16.909  17.211  12.561  0.00  0.00    -0.776 OA
ATOM     35  HE2 GLU d   1      16.578  16.987  11.666  0.00  0.00     0.167 HD
ENDBRANCH  32  34
ENDBRANCH  31  32
ENDBRANCH  30  31
ENDBRANCH  29  30
BRANCH  29  36
ATOM     36  C   GLU d   1      17.886  18.283  15.946  0.00  0.00     0.163 C 
ATOM     37  O   GLU d   1      16.734  18.231  15.543  0.00  0.00    -0.648 OA
BRANCH  36  38
ATOM     38  OXT GLU d   1      18.117  18.433  17.274  0.00  0.00    -0.775 OA
ATOM     39  HXT GLU d   1      18.526  19.326  17.330  0.00  0.00     0.167 HD
ENDBRANCH  36  38
ENDBRANCH  29  36
ENDBRANCH  27  29
ENDBRANCH   1  25
TORSDOF 12
ENDMDL
MODEL 7
REMARK VINA RESULT:      -8.3      2.884      4.633
REMARK  12 active torsions:
REMARK  status: ('A' for Active; 'I' for Inactive)
REMARK    1  A    between atoms: C1_2  and  N2_3 
REMARK    2  A    between atoms: C4_9  and  C7_13 
REMARK    3  A    between atoms: C7_13  and  N6_14 
REMARK    4  A    between atoms: N6_14  and  C11_18 
REMARK    5  A    between atoms: C8_15  and  C14_21 
REMARK       I    between atoms: C14_21  and  N_23 
REMARK    6  A    between atoms: N_23  and  CA_24 
REMARK    7  A    between atoms: CA_24  and  CB_25 
REMARK    8  A    between atoms: CA_24  and  C_30 
REMARK    9  A    between atoms: CB_25  and  CG_26 
REMARK   10  A    between atoms: CG_26  and  CD_27 
REMARK   11  A    between atoms: CD_27  and  OE2_29 
REMARK   12  A    between atoms: C_30  and  OXT_32 
ROOT
ATOM      1  C8  <1> d   1      23.004  20.257  10.440  0.00  0.00     0.032 A 
ATOM      2  C9  <1> d   1      23.086  19.728   9.148  0.00  0.00     0.019 A 
ATOM      3  C10 <1> d   1      23.562  20.513   8.089  0.00  0.00     0.030 A 
ATOM      4  C11 <1> d   1      24.015  21.817   8.303  0.00  0.00     0.028 A 
ATOM      5  C12 <1> d   1      23.987  22.311   9.614  0.00  0.00     0.030 A 
ATOM      6  C13 <1> d   1      23.482  21.547  10.676  0.00  0.00     0.019 A 
ENDROOT
BRANCH   4   7
ATOM      7  N6  <1> d   1      24.436  22.638   7.282  0.00  0.00    -0.384 N 
ATOM      8  H7  <1> d   1      24.494  23.644   7.436  0.00  0.00     0.160 HD
BRANCH   7   9
ATOM      9  C7  <1> d   1      24.568  22.226   5.894  0.00  0.00     0.180 C 
BRANCH   9  10
ATOM     10  C4  <1> d   1      23.372  22.694   5.085  0.00  0.00     0.070 A 
ATOM     11  N4  <1> d   1      22.325  21.842   4.914  0.00  0.00    -0.241 NA
ATOM     12  C3  <1> d   1      21.256  22.355   4.248  0.00  0.00     0.173 A 
ATOM     13  C2  <1> d   1      20.033  21.521   4.052  0.00  0.00     0.302 A 
ATOM     14  C6  <1> d   1      21.215  23.653   3.750  0.00  0.00     0.164 A 
ATOM     15  N3  <1> d   1      18.907  22.090   3.474  0.00  0.00    -0.179 NA
ATOM     16  O1  <1> d   1      20.052  20.347   4.410  0.00  0.00    -0.263 OA
ATOM     17  C1  <1> d   1      18.986  23.306   3.045  0.00  0.00     0.182 A 
ATOM     18  N1  <1> d   1      20.077  24.102   3.095  0.00  0.00    -0.314 N 
ATOM     19  H1  <1> d   1      20.056  25.082   2.865  0.00  0.00     0.170 HD
ATOM     20  N5  <1> d   1      22.270  24.490   3.891  0.00  0.00    -0.239 NA
ATOM     21  C5  <1> d   1      23.338  23.986   4.564  0.00  0.00     0.147 A 
BRANCH  17  22
ATOM     22  N2  <1> d   1      17.904  23.904   2.490  0.00  0.00    -0.272 NA
ATOM     23  H2  <1> d   1      17.763  23.729   1.505  0.00  0.00     0.127 HD
ATOM     24  H3  <1> d   1      17.061  23.696   3.025  0.00  0.00     0.127 HD
ENDBRANCH  17  22
ENDBRANCH   9  10
ENDBRANCH   7   9
ENDBRANCH   4   7
BRANCH   1  25
ATOM     25  C14 <1> d   1      22.415  19.415  11.519  0.00  0.00     0.252 C 
ATOM     26  O2  <1> d   1      23.038  18.454  11.953  0.00  0.00    -0.268 OA
ATOM     27  N   GLU d   1      21.152  19.755  11.960  0.00  0.00    -0.343 N 
ATOM     28  H   GLU d   1      20.813  19.397  12.846  0.00  0.00     0.163 HD
BRANCH  27  29
ATOM     29  CA  GLU d   1      20.435  20.904  11.404  0.00  0.00     0.183 C 
BRANCH  29  30
ATOM     30  CB  GLU d   1      19.531  20.521  10.226  0.00  0.00     0.046 C 
BRANCH  30  31
ATOM     31  CG  GLU d   1      19.136  21.695   9.328  0.00  0.00     0.112 C 
BRANCH  31  32
ATOM     32  CD  GLU d   1      20.056  21.779   8.141  0.00  0.00     0.139 C 
ATOM     33  OE1 GLU d   1      20.682  22.752   7.760  0.00  0.00    -0.650 OA
BRANCH  32  34
ATOM     34  OE2 GLU d   1      20.110  20.622   7.453  0.00  0.00    -0.776 OA
ATOM     35  HE2 GLU d   1      21.047  20.565   7.170  0.00  0.00     0.167 HD
ENDBRANCH  32  34
ENDBRANCH  31  32
ENDBRANCH  30  31
ENDBRANCH  29  30
BRANCH  29  36
ATOM     36  C   GLU d   1      19.646  21.685  12.460  0.00  0.00     0.163 C 
ATOM     37  O   GLU d   1      18.528  21.425  12.878  0.00  0.00    -0.648 OA
BRANCH  36  38
ATOM     38  OXT GLU d   1      20.279  22.796  12.912  0.00  0.00    -0.775 OA
ATOM     39  HXT GLU d   1      19.971  22.866  13.844  0.00  0.00     0.167 HD
ENDBRANCH  36  38
ENDBRANCH  29  36
ENDBRANCH  27  29
ENDBRANCH   1  25
TORSDOF 12
ENDMDL
MODEL 8
REMARK VINA RESULT:      -8.3      1.082      1.660
REMARK  12 active torsions:
REMARK  status: ('A' for Active; 'I' for Inactive)
REMARK    1  A    between atoms: C1_2  and  N2_3 
REMARK    2  A    between atoms: C4_9  and  C7_13 
REMARK    3  A    between atoms: C7_13  and  N6_14 
REMARK    4  A    between atoms: N6_14  and  C11_18 
REMARK    5  A    between atoms: C8_15  and  C14_21 
REMARK       I    between atoms: C14_21  and  N_23 
REMARK    6  A    between atoms: N_23  and  CA_24 
REMARK    7  A    between atoms: CA_24  and  CB_25 
REMARK    8  A    between atoms: CA_24  and  C_30 
REMARK    9  A    between atoms: CB_25  and  CG_26 
REMARK   10  A    between atoms: CG_26  and  CD_27 
REMARK   11  A    between atoms: CD_27  and  OE2_29 
REMARK   12  A    between atoms: C_30  and  OXT_32 
ROOT
ATOM      1  C8  <1> d   1      19.035  20.570  10.969  0.00  0.00     0.032 A 
ATOM      2  C9  <1> d   1      20.417  20.783  11.001  0.00  0.00     0.019 A 
ATOM      3  C10 <1> d   1      21.209  20.468   9.889  0.00  0.00     0.030 A 
ATOM      4  C11 <1> d   1      20.638  19.988   8.708  0.00  0.00     0.028 A 
ATOM      5  C12 <1> d   1      19.245  19.841   8.669  0.00  0.00     0.030 A 
ATOM      6  C13 <1> d   1      18.445  20.122   9.786  0.00  0.00     0.019 A 
ENDROOT
BRANCH   4   7
ATOM      7  N6  <1> d   1      21.386  19.615   7.615  0.00  0.00    -0.384 N 
ATOM      8  H7  <1> d   1      21.455  18.629   7.364  0.00  0.00     0.160 HD
BRANCH   7   9
ATOM      9  C7  <1> d   1      22.316  20.487   6.916  0.00  0.00     0.180 C 
BRANCH   9  10
ATOM     10  C4  <1> d   1      21.590  21.301   5.860  0.00  0.00     0.070 A 
ATOM     11  N4  <1> d   1      20.672  20.678   5.071  0.00  0.00    -0.241 NA
ATOM     12  C3  <1> d   1      20.004  21.484   4.203  0.00  0.00     0.173 A 
ATOM     13  C2  <1> d   1      18.938  20.912   3.329  0.00  0.00     0.302 A 
ATOM     14  C6  <1> d   1      20.234  22.852   4.097  0.00  0.00     0.164 A 
ATOM     15  N3  <1> d   1      18.184  21.761   2.531  0.00  0.00    -0.179 NA
ATOM     16  O1  <1> d   1      18.752  19.699   3.337  0.00  0.00    -0.263 OA
ATOM     17  C1  <1> d   1      18.490  23.016   2.510  0.00  0.00     0.182 A 
ATOM     18  N1  <1> d   1      19.495  23.604   3.195  0.00  0.00    -0.314 N 
ATOM     19  H1  <1> d   1      19.617  24.603   3.246  0.00  0.00     0.170 HD
ATOM     20  N5  <1> d   1      21.170  23.466   4.858  0.00  0.00    -0.239 NA
ATOM     21  C5  <1> d   1      21.836  22.666   5.734  0.00  0.00     0.147 A 
BRANCH  17  22
ATOM     22  N2  <1> d   1      17.767  23.880   1.758  0.00  0.00    -0.272 NA
ATOM     23  H2  <1> d   1      17.815  24.850   2.036  0.00  0.00     0.127 HD
ATOM     24  H3  <1> d   1      17.986  23.770   0.768  0.00  0.00     0.127 HD
ENDBRANCH  17  22
ENDBRANCH   9  10
ENDBRANCH   7   9
ENDBRANCH   4   7
BRANCH   1  25
ATOM     25  C14 <1> d   1      18.242  20.842  12.201  0.00  0.00     0.252 C 
ATOM     26  O2  <1> d   1      17.771  21.956  12.391  0.00  0.00    -0.268 OA
ATOM     27  N   GLU d   1      18.108  19.803  13.101  0.00  0.00    -0.343 N 
ATOM     28  H   GLU d   1      17.384  19.840  13.810  0.00  0.00     0.163 HD
BRANCH  27  29
ATOM     29  CA  GLU d   1      18.701  18.490  12.842  0.00  0.00     0.183 C 
BRANCH  29  30
ATOM     30  CB  GLU d   1      19.533  17.976  14.022  0.00  0.00     0.046 C 
BRANCH  30  31
ATOM     31  CG  GLU d   1      20.813  18.772  14.284  0.00  0.00     0.112 C 
BRANCH  31  32
ATOM     32  CD  GLU d   1      21.324  18.501  15.673  0.00  0.00     0.139 C 
ATOM     33  OE1 GLU d   1      22.474  18.592  16.066  0.00  0.00    -0.650 OA
BRANCH  32  34
ATOM     34  OE2 GLU d   1      20.351  18.080  16.503  0.00  0.00    -0.776 OA
ATOM     35  HE2 GLU d   1      19.546  18.094  15.944  0.00  0.00     0.167 HD
ENDBRANCH  32  34
ENDBRANCH  31  32
ENDBRANCH  30  31
ENDBRANCH  29  30
BRANCH  29  36
ATOM     36  C   GLU d   1      17.669  17.442  12.410  0.00  0.00     0.163 C 
ATOM     37  O   GLU d   1      16.490  17.405  12.725  0.00  0.00    -0.648 OA
BRANCH  36  38
ATOM     38  OXT GLU d   1      18.179  16.452  11.637  0.00  0.00    -0.775 OA
ATOM     39  HXT GLU d   1      18.616  15.860  12.290  0.00  0.00     0.167 HD
ENDBRANCH  36  38
ENDBRANCH  29  36
ENDBRANCH  27  29
ENDBRANCH   1  25
TORSDOF 12
ENDMDL
MODEL 9
REMARK VINA RESULT:      -8.3      4.431      7.364
REMARK  12 active torsions:
REMARK  status: ('A' for Active; 'I' for Inactive)
REMARK    1  A    between atoms: C1_2  and  N2_3 
REMARK    2  A    between atoms: C4_9  and  C7_13 
REMARK    3  A    between atoms: C7_13  and  N6_14 
REMARK    4  A    between atoms: N6_14  and  C11_18 
REMARK    5  A    between atoms: C8_15  and  C14_21 
REMARK       I    between atoms: C14_21  and  N_23 
REMARK    6  A    between atoms: N_23  and  CA_24 
REMARK    7  A    between atoms: CA_24  and  CB_25 
REMARK    8  A    between atoms: CA_24  and  C_30 
REMARK    9  A    between atoms: CB_25  and  CG_26 
REMARK   10  A    between atoms: CG_26  and  CD_27 
REMARK   11  A    between atoms: CD_27  and  OE2_29 
REMARK   12  A    between atoms: C_30  and  OXT_32 
ROOT
ATOM      1  C8  <1> d   1      18.682  16.831  12.632  0.00  0.00     0.032 A 
ATOM      2  C9  <1> d   1      19.009  15.963  11.585  0.00  0.00     0.019 A 
ATOM      3  C10 <1> d   1      20.155  15.161  11.659  0.00  0.00     0.030 A 
ATOM      4  C11 <1> d   1      20.967  15.165  12.796  0.00  0.00     0.028 A 
ATOM      5  C12 <1> d   1      20.591  15.991  13.864  0.00  0.00     0.030 A 
ATOM      6  C13 <1> d   1      19.465  16.823  13.788  0.00  0.00     0.019 A 
ENDROOT
BRANCH   4   7
ATOM      7  N6  <1> d   1      22.130  14.434  12.886  0.00  0.00    -0.384 N 
ATOM      8  H7  <1> d   1      22.081  13.423  13.003  0.00  0.00     0.160 HD
BRANCH   7   9
ATOM      9  C7  <1> d   1      23.451  15.007  13.089  0.00  0.00     0.180 C 
BRANCH   9  10
ATOM     10  C4  <1> d   1      23.737  16.067  12.041  0.00  0.00     0.070 A 
ATOM     11  N4  <1> d   1      23.417  17.361  12.315  0.00  0.00    -0.241 NA
ATOM     12  C3  <1> d   1      23.774  18.266  11.364  0.00  0.00     0.173 A 
ATOM     13  C2  <1> d   1      23.516  19.719  11.588  0.00  0.00     0.302 A 
ATOM     14  C6  <1> d   1      24.409  17.918  10.177  0.00  0.00     0.164 A 
ATOM     15  N3  <1> d   1      23.987  20.643  10.667  0.00  0.00    -0.179 NA
ATOM     16  O1  <1> d   1      22.893  20.064  12.588  0.00  0.00    -0.263 OA
ATOM     17  C1  <1> d   1      24.562  20.205   9.596  0.00  0.00     0.182 A 
ATOM     18  N1  <1> d   1      24.753  18.908   9.267  0.00  0.00    -0.314 N 
ATOM     19  H1  <1> d   1      25.317  18.615   8.486  0.00  0.00     0.170 HD
ATOM     20  N5  <1> d   1      24.698  16.627   9.889  0.00  0.00    -0.239 NA
ATOM     21  C5  <1> d   1      24.351  15.719  10.840  0.00  0.00     0.147 A 
BRANCH  17  22
ATOM     22  N2  <1> d   1      25.050  21.075   8.681  0.00  0.00    -0.272 NA
ATOM     23  H2  <1> d   1      24.537  21.133   7.812  0.00  0.00     0.127 HD
ATOM     24  H3  <1> d   1      25.182  21.999   9.092  0.00  0.00     0.127 HD
ENDBRANCH  17  22
ENDBRANCH   9  10
ENDBRANCH   7   9
ENDBRANCH   4   7
BRANCH   1  25
ATOM     25  C14 <1> d   1      17.501  17.726  12.475  0.00  0.00     0.252 C 
ATOM     26  O2  <1> d   1      16.384  17.321  12.775  0.00  0.00    -0.268 OA
ATOM     27  N   GLU d   1      17.733  18.983  11.956  0.00  0.00    -0.343 N 
ATOM     28  H   GLU d   1      17.035  19.712  12.067  0.00  0.00     0.163 HD
BRANCH  27  29
ATOM     29  CA  GLU d   1      19.083  19.423  11.597  0.00  0.00     0.183 C 
BRANCH  29  30
ATOM     30  CB  GLU d   1      19.275  19.556  10.082  0.00  0.00     0.046 C 
BRANCH  30  31
ATOM     31  CG  GLU d   1      20.310  18.597   9.492  0.00  0.00     0.112 C 
BRANCH  31  32
ATOM     32  CD  GLU d   1      21.235  19.332   8.561  0.00  0.00     0.139 C 
ATOM     33  OE1 GLU d   1      21.894  18.859   7.652  0.00  0.00    -0.650 OA
BRANCH  32  34
ATOM     34  OE2 GLU d   1      21.318  20.644   8.852  0.00  0.00    -0.776 OA
ATOM     35  HE2 GLU d   1      20.987  21.083   8.040  0.00  0.00     0.167 HD
ENDBRANCH  32  34
ENDBRANCH  31  32
ENDBRANCH  30  31
ENDBRANCH  29  30
BRANCH  29  36
ATOM     36  C   GLU d   1      19.502  20.712  12.313  0.00  0.00     0.163 C 
ATOM     37  O   GLU d   1      19.089  21.118  13.387  0.00  0.00    -0.648 OA
BRANCH  36  38
ATOM     38  OXT GLU d   1      20.390  21.464  11.617  0.00  0.00    -0.775 OA
ATOM     39  HXT GLU d   1      21.029  21.751  12.308  0.00  0.00     0.167 HD
ENDBRANCH  36  38
ENDBRANCH  29  36
ENDBRANCH  27  29
ENDBRANCH   1  25
TORSDOF 12
ENDMDL
