REMARK  12 active torsions:
REMARK  status: ('A' for Active; 'I' for Inactive)
REMARK    1  A    between atoms: C1_2  and  N2_3 
REMARK    2  A    between atoms: C4_9  and  C7_13 
REMARK    3  A    between atoms: C7_13  and  N6_14 
REMARK    4  A    between atoms: N6_14  and  C11_18 
REMARK    5  A    between atoms: C8_15  and  C14_21 
REMARK       I    between atoms: C14_21  and  N_23 
REMARK    6  A    between atoms: N_23  and  CA_24 
REMARK    7  A    between atoms: CA_24  and  CB_25 
REMARK    8  A    between atoms: CA_24  and  C_30 
REMARK    9  A    between atoms: CB_25  and  CG_26 
REMARK   10  A    between atoms: CG_26  and  CD_27 
REMARK   11  A    between atoms: CD_27  and  OE2_29 
REMARK   12  A    between atoms: C_30  and  OXT_32 
ROOT
ATOM      1  C8  <1> d   1       5.653  -5.649   1.119  0.00  0.00     0.032 A 
ATOM      2  C9  <1> d   1       6.351  -4.659   0.420  0.00  0.00     0.019 A 
ATOM      3  C10 <1> d   1       5.915  -3.328   0.451  0.00  0.00     0.030 A 
ATOM      4  C11 <1> d   1       4.812  -2.946   1.219  0.00  0.00     0.028 A 
ATOM      5  C12 <1> d   1       4.162  -3.938   1.966  0.00  0.00     0.030 A 
ATOM      6  C13 <1> d   1       4.569  -5.279   1.917  0.00  0.00     0.019 A 
ENDROOT
BRANCH   4   7
ATOM      7  N6  <1> d   1       4.320  -1.661   1.232  0.00  0.00    -0.384 N 
ATOM      8  H7  <1> d   1       3.697  -1.368   1.984  0.00  0.00     0.160 HD
BRANCH   7   9
ATOM      9  C7  <1> d   1       4.402  -0.735   0.114  0.00  0.00     0.180 C 
BRANCH   9  10
ATOM     10  C4  <1> d   1       5.851  -0.493  -0.270  0.00  0.00     0.070 A 
ATOM     11  N4  <1> d   1       6.828  -1.130   0.431  0.00  0.00    -0.241 NA
ATOM     12  C3  <1> d   1       8.096  -0.929  -0.018  0.00  0.00     0.173 A 
ATOM     13  C2  <1> d   1       9.238  -1.623   0.647  0.00  0.00     0.302 A 
ATOM     14  C6  <1> d   1       8.403  -0.120  -1.107  0.00  0.00     0.164 A 
ATOM     15  N3  <1> d   1      10.512  -1.503   0.111  0.00  0.00    -0.179 NA
ATOM     16  O1  <1> d   1       9.022  -2.288   1.656  0.00  0.00    -0.263 OA
ATOM     17  C1  <1> d   1      10.680  -0.720  -0.903  0.00  0.00     0.182 A 
ATOM     18  N1  <1> d   1       9.724   0.018  -1.509  0.00  0.00    -0.314 N 
ATOM     19  H1  <1> d   1       9.875   0.514  -2.372  0.00  0.00     0.170 HD
ATOM     20  N5  <1> d   1       7.434   0.540  -1.784  0.00  0.00    -0.239 NA
ATOM     21  C5  <1> d   1       6.163   0.336  -1.345  0.00  0.00     0.147 A 
BRANCH  17  22
ATOM     22  N2  <1> d   1      11.905  -0.589  -1.466  0.00  0.00    -0.272 NA
ATOM     23  H2  <1> d   1      12.174   0.352  -1.718  0.00  0.00     0.127 HD
ATOM     24  H3  <1> d   1      12.619  -1.033  -0.889  0.00  0.00     0.127 HD
ENDBRANCH  17  22
ENDBRANCH   9  10
ENDBRANCH   7   9
ENDBRANCH   4   7
BRANCH   1  25
ATOM     25  C14 <1> d   1       6.103  -7.064   0.992  0.00  0.00     0.252 C 
ATOM     26  O2  <1> d   1       5.943  -7.842   1.924  0.00  0.00    -0.268 OA
ATOM     27  N   GLU d   1       6.722  -7.420  -0.189  0.00  0.00    -0.343 N 
ATOM     28  H   GLU d   1       6.812  -8.400  -0.437  0.00  0.00     0.163 HD
BRANCH  27  29
ATOM     29  CA  GLU d   1       6.907  -6.454  -1.274  0.00  0.00     0.183 C 
BRANCH  29  30
ATOM     30  CB  GLU d   1       6.895  -7.113  -2.658  0.00  0.00     0.046 C 
BRANCH  30  31
ATOM     31  CG  GLU d   1       5.590  -7.835  -3.000  0.00  0.00     0.112 C 
BRANCH  31  32
ATOM     32  CD  GLU d   1       4.439  -6.867  -2.993  0.00  0.00     0.139 C 
ATOM     33  OE1 GLU d   1       4.300  -5.882  -3.697  0.00  0.00    -0.650 OA
BRANCH  32  34
ATOM     34  OE2 GLU d   1       3.522  -7.168  -2.054  0.00  0.00    -0.776 OA
ATOM     35  HE2 GLU d   1       2.840  -6.472  -2.164  0.00  0.00     0.167 HD
ENDBRANCH  32  34
ENDBRANCH  31  32
ENDBRANCH  30  31
ENDBRANCH  29  30
BRANCH  29  36
ATOM     36  C   GLU d   1       5.908  -5.293  -1.218  0.00  0.00     0.163 C 
ATOM     37  O   GLU d   1       6.173  -4.106  -1.109  0.00  0.00    -0.648 OA
BRANCH  36  38
ATOM     38  OXT GLU d   1       4.609  -5.681  -1.249  0.00  0.00    -0.775 OA
ATOM     39  HXT GLU d   1       4.120  -4.835  -1.136  0.00  0.00     0.167 HD
ENDBRANCH  36  38
ENDBRANCH  29  36
ENDBRANCH  27  29
ENDBRANCH   1  25
TORSDOF 12
