@<TRIPOS>MOLECULE
FOL
 51 53 0 0 0
SMALL
GASTEIGER

@<TRIPOS>ATOM
      1 N1          9.7239    0.0181   -1.5094 N.pl3   1  <1>        -0.3109
      2 C1         10.6799   -0.7199   -0.9032 C.3     1  <1>         0.1953
      3 N2         11.9055   -0.5893   -1.4656 N.pl3   1  <1>        -0.3289
      4 N3         10.5118   -1.5027    0.1112 N.am    1  <1>        -0.1756
      5 C2          9.2377   -1.6225    0.6474 C.2     1  <1>         0.3021
      6 O1          9.0223   -2.2877    1.6564 O.2     1  <1>        -0.2633
      7 C3          8.0959   -0.9291   -0.0182 C.3     1  <1>         0.1725
      8 N4          6.8277   -1.1301    0.4311 N.pl3   1  <1>        -0.2400
      9 C4          5.8505   -0.4932   -0.2698 C.3     1  <1>         0.0773
     10 C5          6.1633    0.3364   -1.3448 C.3     1  <1>         0.0528
     11 N5          7.4339    0.5404   -1.7837 N.pl3   1  <1>        -0.2339
     12 C6          8.4035   -0.1203   -1.1068 C.3     1  <1>         0.1644
     13 C7          4.4018   -0.7346    0.1140 C.3     1  <1>         0.0530
     14 N6          4.3197   -1.6614    1.2315 N.pl3   1  <1>        -0.3382
     15 C8          5.6529   -5.6489    1.1186 C.3     1  <1>         0.0368
     16 C9          6.3510   -4.6592    0.4198 C.3     1  <1>        -0.0479
     17 C10         5.9153   -3.3283    0.4514 C.3     1  <1>        -0.0401
     18 C11         4.8120   -2.9460    1.2189 C.3     1  <1>         0.0275
     19 C12         4.1621   -3.9379    1.9657 C.3     1  <1>        -0.0401
     20 C13         4.5692   -5.2785    1.9172 C.3     1  <1>        -0.0479
     21 C14         6.1029   -7.0635    0.9924 C.2     1  <1>         0.2447
     22 O2          5.9428   -7.8421    1.9237 O.2     1  <1>        -0.2702
     23 N           6.7217   -7.4205   -0.1894 N.am    1  GLU11      -0.2983
     24 CA          6.9070   -6.4541   -1.2737 C.3     1  GLU11       0.1209
     25 CB          6.8949   -7.1133   -2.6583 C.3     1  GLU11      -0.0140
     26 CG          5.5903   -7.8352   -3.0004 C.3     1  GLU11       0.0470
     27 CD          4.4387   -6.8668   -2.9932 C.2     1  GLU11       0.3048
     28 OE1         4.2999   -5.8818   -3.6973 O.2     1  GLU11      -0.2510
     29 OE2         3.5223   -7.1675   -2.0536 O.3     1  GLU11      -0.4806
     30 C           5.9078   -5.2934   -1.2185 C.2     1  GLU11       0.3253
     31 O           6.1725   -4.1058   -1.1088 O.2     1  GLU11      -0.2489
     32 OXT         4.6092   -5.6807   -1.2488 O.3     1  GLU11      -0.4793
     33 H1          9.8749    0.5145   -2.3722 H       1  <1>         0.1701
     34 H2         12.1744    0.3525   -1.7176 H       1  <1>         0.1451
     35 H3         12.6187   -1.0329   -0.8893 H       1  <1>         0.1451
     36 H4          5.3934    0.8623   -1.9018 H       1  <1>         0.0849
     37 H5          3.9451    0.2252    0.3848 H       1  <1>         0.0527
     38 H6          3.8848   -1.1440   -0.7601 H       1  <1>         0.0527
     39 H7          3.6969   -1.3681    1.9843 H       1  <1>         0.1465
     40 H8          7.2343   -4.9169   -0.1617 H       1  <1>         0.0626
     41 H9          6.4799   -2.5903   -0.1106 H       1  <1>         0.0636
     42 H10         3.3068   -3.6723    2.5844 H       1  <1>         0.0636
     43 H11         4.0378   -6.0079    2.5204 H       1  <1>         0.0626
     44 H           6.8119   -8.3999   -0.4366 H       1  GLU11       0.1498
     45 HA          7.8878   -5.9900   -1.1114 H       1  GLU11       0.0614
     46 HB1         7.1050   -6.3576   -3.4257 H       1  GLU11       0.0294
     47 HB2         7.7177   -7.8360   -2.7208 H       1  GLU11       0.0294
     48 HG1         5.6574   -8.2746   -4.0029 H       1  GLU11       0.0378
     49 HG2         5.3751   -8.6318   -2.2816 H       1  GLU11       0.0378
     50 HE2         2.8399   -6.4721   -2.1645 H       1  GLU11       0.2951
     51 HXT         4.1199   -4.8349   -1.1358 H       1  GLU11       0.2951
@<TRIPOS>BOND
     1     1     2   ar
     2     1    12   ar
     3     1    33    1
     4     2     3    1
     5     2     4   ar
     6     3    34    1
     7     3    35    1
     8     4     5   ar
     9     5     6    2
    10     5     7   ar
    11     7     8   ar
    12     7    12   ar
    13     8     9   ar
    14     9    10   ar
    15     9    13    1
    16    10    11   ar
    17    10    36    1
    18    11    12   ar
    19    13    14    1
    20    13    37    1
    21    13    38    1
    22    14    18    1
    23    14    39    1
    24    15    16   ar
    25    15    20   ar
    26    15    21    1
    27    16    17   ar
    28    16    40    1
    29    17    18   ar
    30    17    41    1
    31    18    19   ar
    32    19    20   ar
    33    19    42    1
    34    20    43    1
    35    21    22    2
    36    21    23   am
    37    23    24    1
    38    23    44    1
    39    24    25    1
    40    24    30    1
    41    24    45    1
    42    25    26    1
    43    25    46    1
    44    25    47    1
    45    26    27    1
    46    26    48    1
    47    26    49    1
    48    27    28    2
    49    27    29    1
    50    29    50    1
    51    30    31    2
    52    30    32    1
    53    32    51    1
