@<TRIPOS>MOLECULE
SMA
 79 80 0 0 0
SMALL
GASTEIGER

@<TRIPOS>ATOM
      1 C           6.0380  129.9620   81.5380 C.ar    1  UNL1        0.1124
      2 C           4.8010  130.0520   82.1210 C.ar    1  UNL1        0.0350
      3 C           4.1180  128.8890   82.7330 C.3     1  UNL1       -0.0329
      4 C           4.0670  131.3450   82.1550 C.ar    1  UNL1        0.1993
      5 C           4.7650  132.4870   81.5290 C.ar    1  UNL1        0.1096
      6 C           4.1960  133.8100   81.4470 C.ar    1  UNL1        0.1382
      7 C           2.3220  135.2190   81.9200 C.3     1  UNL1        0.0788
      8 C           4.9120  134.8870   80.8380 C.ar    1  UNL1        0.0264
      9 C           6.2050  134.6730   80.2990 C.ar    1  UNL1        0.1685
     10 C           6.5440  136.0950   78.3740 C.3     1  UNL1        0.0790
     11 C           6.8050  133.3360   80.3620 C.ar    1  UNL1        0.2026
     12 C           6.0550  132.2900   80.9670 C.ar    1  UNL1        0.1871
     13 C           6.9220  128.7460   81.3670 C.3     1  UNL1        0.0062
     14 C           7.6430  128.2300   82.5930 C.3     1  UNL1       -0.0412
     15 C           8.8080  127.3290   82.1840 C.3     1  UNL1       -0.0168
     16 C           9.5880  126.7710   83.4120 C.3     1  UNL1        0.0661
     17 C          10.4400  127.8610   84.1420 C.3     1  UNL1        0.0125
     18 C          11.1030  127.3090   85.4330 C.3     1  UNL1        0.0816
     19 C          10.9760  128.2980   86.5070 C.2     1  UNL1       -0.0553
     20 C          11.8430  128.4400   87.5090 C.2     1  UNL1       -0.0633
     21 C          12.5820  129.6570   87.7600 C.2     1  UNL1       -0.0617
     22 C          13.4530  129.7680   88.7900 C.2     1  UNL1       -0.0591
     23 C          13.9260  131.0210   89.3610 C.2     1  UNL1       -0.0546
     24 C          15.1660  131.4420   89.0630 C.2     1  UNL1       -0.0842
     25 C          15.7950  132.6780   89.5530 C.3     1  UNL1       -0.0463
     26 C           8.3130  126.1790   81.3310 C.3     1  UNL1       -0.0600
     27 C           8.6570  124.8030   84.5020 C.3     1  UNL1        0.0368
     28 C          11.4940  128.4410   83.1900 C.3     1  UNL1       -0.0574
     29 C          12.7830  125.6680   85.1680 C.3     1  UNL1        0.0372
     30 C          12.9940  131.7690   90.2560 C.3     1  UNL1       -0.0400
     31 O           6.6760  131.0570   80.9720 O.2     1  UNL1       -0.4553
     32 O           2.9470  131.4400   82.6740 O.2     1  UNL1       -0.2866
     33 O           2.9430  133.9390   81.9840 O.3     1  UNL1       -0.4942
     34 O           6.9570  135.6860   79.6960 O.3     1  UNL1       -0.4912
     35 O           8.0660  133.1340   79.8350 O.3     1  UNL1       -0.5009
     36 O           8.6420  126.2220   84.3620 O.3     1  UNL1       -0.3791
     37 O          12.4690  127.0450   85.1550 O.3     1  UNL1       -0.3754
     38 H           3.1430  129.2050   83.1340 H       1  UNL1        0.0280
     39 H           3.9660  128.1100   81.9710 H       1  UNL1        0.0280
     40 H           4.7370  128.4880   83.5490 H       1  UNL1        0.0280
     41 H           1.3280  135.1680   82.3880 H       1  UNL1        0.0660
     42 H           2.9420  135.9540   82.4550 H       1  UNL1        0.0660
     43 H           2.2170  135.5230   80.8680 H       1  UNL1        0.0660
     44 H           4.4650  135.8690   80.7880 H       1  UNL1        0.0692
     45 H           7.2100  136.8920   78.0110 H       1  UNL1        0.0660
     46 H           6.5970  135.2340   77.6910 H       1  UNL1        0.0660
     47 H           5.5110  136.4700   78.4130 H       1  UNL1        0.0660
     48 H           6.2770  127.9300   81.0080 H       1  UNL1        0.0344
     49 H           7.6940  129.0130   80.6310 H       1  UNL1        0.0344
     50 H           8.0310  129.0830   83.1700 H       1  UNL1        0.0273
     51 H           6.9390  127.6530   83.2100 H       1  UNL1        0.0273
     52 H           9.5030  127.9520   81.6020 H       1  UNL1        0.0323
     53 H          10.2790  126.0040   83.0330 H       1  UNL1        0.0602
     54 H           9.7580  128.6680   84.4480 H       1  UNL1        0.0351
     55 H          10.6090  126.3810   85.7570 H       1  UNL1        0.0644
     56 H          10.1210  128.9570   86.4850 H       1  UNL1        0.0598
     57 H          12.0020  127.6000   88.1690 H       1  UNL1        0.0615
     58 H          12.4350  130.5030   87.1060 H       1  UNL1        0.0618
     59 H          13.8280  128.8530   89.2240 H       1  UNL1        0.0620
     60 H          15.7530  130.8180   88.4060 H       1  UNL1        0.0572
     61 H          16.8120  132.7600   89.1430 H       1  UNL1        0.0272
     62 H          15.1990  133.5450   89.2310 H       1  UNL1        0.0272
     63 H          15.8430  132.6540   90.6520 H       1  UNL1        0.0272
     64 H           9.1630  125.5410   81.0460 H       1  UNL1        0.0233
     65 H           7.5850  125.5850   81.9030 H       1  UNL1        0.0233
     66 H           7.8320  126.5760   80.4250 H       1  UNL1        0.0233
     67 H           7.9040  124.4990   85.2440 H       1  UNL1        0.0524
     68 H           8.4260  124.3370   83.5330 H       1  UNL1        0.0524
     69 H           9.6530  124.4780   84.8370 H       1  UNL1        0.0524
     70 H          12.0840  129.2050   83.7170 H       1  UNL1        0.0234
     71 H          12.1600  127.6360   82.8460 H       1  UNL1        0.0234
     72 H          10.9930  128.8980   82.3240 H       1  UNL1        0.0234
     73 H          13.8520  125.5330   84.9460 H       1  UNL1        0.0524
     74 H          12.5590  125.2500   86.1610 H       1  UNL1        0.0524
     75 H          12.1820  125.1480   84.4070 H       1  UNL1        0.0524
     76 H          13.4830  132.6880   90.6100 H       1  UNL1        0.0277
     77 H          12.0820  132.0300   89.6990 H       1  UNL1        0.0277
     78 H          12.7300  131.1390   91.1180 H       1  UNL1        0.0277
     79 H           8.3160  132.2250   79.9500 H       1  UNL1        0.2924
@<TRIPOS>BOND
     1    10    34    1
     2     9    34    1
     3    11    35    1
     4     9    11   ar
     5     8     9   ar
     6    11    12   ar
     7     6     8   ar
     8    12    31   ar
     9     5    12   ar
    10     1    31   ar
    11    15    26    1
    12     1    13    1
    13    13    14    1
    14     5     6   ar
    15     6    33    1
    16     4     5   ar
    17     1     2   ar
    18     7    33    1
    19     2     4   ar
    20     2     3    1
    21     4    32    2
    22    14    15    1
    23    15    16    1
    24    17    28    1
    25    16    17    1
    26    16    36    1
    27    17    18    1
    28    27    36    1
    29    29    37    1
    30    18    37    1
    31    18    19    1
    32    19    20    2
    33    20    21    1
    34    21    22    2
    35    22    23    1
    36    23    24    2
    37    24    25    1
    38    23    30    1
    39     3    38    1
    40     3    39    1
    41     3    40    1
    42     7    41    1
    43     7    42    1
    44     7    43    1
    45     8    44    1
    46    10    45    1
    47    10    46    1
    48    10    47    1
    49    13    48    1
    50    13    49    1
    51    14    50    1
    52    14    51    1
    53    15    52    1
    54    16    53    1
    55    17    54    1
    56    18    55    1
    57    19    56    1
    58    20    57    1
    59    21    58    1
    60    22    59    1
    61    24    60    1
    62    25    61    1
    63    25    62    1
    64    25    63    1
    65    26    64    1
    66    26    65    1
    67    26    66    1
    68    27    67    1
    69    27    68    1
    70    27    69    1
    71    28    70    1
    72    28    71    1
    73    28    72    1
    74    29    73    1
    75    29    74    1
    76    29    75    1
    77    30    76    1
    78    30    77    1
    79    30    78    1
    80    35    79    1
