MODEL 1
REMARK VINA RESULT:      -6.1      0.000      0.000
REMARK  3 active torsions:
REMARK  status: ('A' for Active; 'I' for Inactive)
REMARK    1  A    between atoms: C_1  and  O_3 
REMARK    2  A    between atoms: C_1  and  C_4 
REMARK    3  A    between atoms: C_5  and  O_10 
ROOT
ATOM      1  C   UNL d   1       6.964 -10.620 -26.203  0.00  0.00     0.070 A 
ATOM      2  C   UNL d   1       6.197 -11.615 -25.581  0.00  0.00     0.082 A 
ATOM      3  C   UNL d   1       6.526 -12.064 -24.302  0.00  0.00     0.037 A 
ATOM      4  C   UNL d   1       7.625 -11.526 -23.632  0.00  0.00     0.003 A 
ATOM      5  C   UNL d   1       8.399 -10.540 -24.243  0.00  0.00     0.001 A 
ATOM      6  C   UNL d   1       8.070 -10.088 -25.522  0.00  0.00     0.021 A 
ENDROOT
BRANCH   1   7
ATOM      7  C   UNL d   1       6.677 -10.081 -27.555  0.00  0.00     0.178 C 
ATOM      8  O   UNL d   1       5.628 -10.186 -28.163  0.00  0.00    -0.646 OA
BRANCH   7   9
ATOM      9  O   UNL d   1       7.728  -9.432 -28.099  0.00  0.00    -0.773 OA
ATOM     10  H   UNL d   1       8.498  -9.865 -27.666  0.00  0.00     0.167 HD
ENDBRANCH   7   9
ENDBRANCH   1   7
BRANCH   2  11
ATOM     11  O   UNL d   1       5.107 -12.207 -26.157  0.00  0.00    -0.360 OA
ATOM     12  H   UNL d   1       4.577 -11.497 -26.579  0.00  0.00     0.217 HD
ENDBRANCH   2  11
TORSDOF 3
ENDMDL
MODEL 2
REMARK VINA RESULT:      -6.0      2.740      4.145
REMARK  3 active torsions:
REMARK  status: ('A' for Active; 'I' for Inactive)
REMARK    1  A    between atoms: C_1  and  O_3 
REMARK    2  A    between atoms: C_1  and  C_4 
REMARK    3  A    between atoms: C_5  and  O_10 
ROOT
ATOM      1  C   UNL d   1       7.432  -9.701 -24.630  0.00  0.00     0.070 A 
ATOM      2  C   UNL d   1       8.015  -9.986 -25.874  0.00  0.00     0.082 A 
ATOM      3  C   UNL d   1       7.486  -9.441 -27.043  0.00  0.00     0.037 A 
ATOM      4  C   UNL d   1       6.368  -8.609 -26.985  0.00  0.00     0.003 A 
ATOM      5  C   UNL d   1       5.776  -8.323 -25.756  0.00  0.00     0.001 A 
ATOM      6  C   UNL d   1       6.306  -8.865 -24.583  0.00  0.00     0.021 A 
ENDROOT
BRANCH   1   7
ATOM      7  C   UNL d   1       7.938 -10.231 -23.341  0.00  0.00     0.178 C 
ATOM      8  O   UNL d   1       8.313  -9.570 -22.389  0.00  0.00    -0.646 OA
BRANCH   7   9
ATOM      9  O   UNL d   1       7.962 -11.579 -23.297  0.00  0.00    -0.773 OA
ATOM     10  H   UNL d   1       8.672 -11.805 -23.939  0.00  0.00     0.167 HD
ENDBRANCH   7   9
ENDBRANCH   1   7
BRANCH   2  11
ATOM     11  O   UNL d   1       9.107 -10.794 -26.034  0.00  0.00    -0.360 OA
ATOM     12  H   UNL d   1       8.784 -11.666 -26.347  0.00  0.00     0.217 HD
ENDBRANCH   2  11
TORSDOF 3
ENDMDL
MODEL 3
REMARK VINA RESULT:      -6.0      1.452      3.045
REMARK  3 active torsions:
REMARK  status: ('A' for Active; 'I' for Inactive)
REMARK    1  A    between atoms: C_1  and  O_3 
REMARK    2  A    between atoms: C_1  and  C_4 
REMARK    3  A    between atoms: C_5  and  O_10 
ROOT
ATOM      1  C   UNL d   1       7.095 -10.969 -24.887  0.00  0.00     0.070 A 
ATOM      2  C   UNL d   1       8.026 -10.488 -25.819  0.00  0.00     0.082 A 
ATOM      3  C   UNL d   1       9.023  -9.596 -25.425  0.00  0.00     0.037 A 
ATOM      4  C   UNL d   1       9.098  -9.171 -24.099  0.00  0.00     0.003 A 
ATOM      5  C   UNL d   1       8.174  -9.637 -23.165  0.00  0.00     0.001 A 
ATOM      6  C   UNL d   1       7.178 -10.533 -23.556  0.00  0.00     0.021 A 
ENDROOT
BRANCH   1   7
ATOM      7  C   UNL d   1       6.013 -11.927 -25.221  0.00  0.00     0.178 C 
ATOM      8  O   UNL d   1       5.389 -11.972 -26.265  0.00  0.00    -0.646 OA
BRANCH   7   9
ATOM      9  O   UNL d   1       5.747 -12.793 -24.221  0.00  0.00    -0.773 OA
ATOM     10  H   UNL d   1       4.775 -12.926 -24.300  0.00  0.00     0.167 HD
ENDBRANCH   7   9
ENDBRANCH   1   7
BRANCH   2  11
ATOM     11  O   UNL d   1       8.031 -10.842 -27.141  0.00  0.00    -0.360 OA
ATOM     12  H   UNL d   1       7.229 -11.382 -27.303  0.00  0.00     0.217 HD
ENDBRANCH   2  11
TORSDOF 3
ENDMDL
MODEL 4
REMARK VINA RESULT:      -6.0      1.385      2.353
REMARK  3 active torsions:
REMARK  status: ('A' for Active; 'I' for Inactive)
REMARK    1  A    between atoms: C_1  and  O_3 
REMARK    2  A    between atoms: C_1  and  C_4 
REMARK    3  A    between atoms: C_5  and  O_10 
ROOT
ATOM      1  C   UNL d   1       7.426 -11.131 -26.343  0.00  0.00     0.070 A 
ATOM      2  C   UNL d   1       8.412 -10.690 -25.449  0.00  0.00     0.082 A 
ATOM      3  C   UNL d   1       8.318 -10.989 -24.091  0.00  0.00     0.037 A 
ATOM      4  C   UNL d   1       7.237 -11.727 -23.609  0.00  0.00     0.003 A 
ATOM      5  C   UNL d   1       6.246 -12.165 -24.487  0.00  0.00     0.001 A 
ATOM      6  C   UNL d   1       6.341 -11.870 -25.849  0.00  0.00     0.021 A 
ENDROOT
BRANCH   1   7
ATOM      7  C   UNL d   1       7.457 -10.866 -27.803  0.00  0.00     0.178 C 
ATOM      8  O   UNL d   1       7.230 -11.673 -28.685  0.00  0.00    -0.646 OA
BRANCH   7   9
ATOM      9  O   UNL d   1       7.782  -9.590 -28.100  0.00  0.00    -0.773 OA
ATOM     10  H   UNL d   1       8.351  -9.328 -27.341  0.00  0.00     0.167 HD
ENDBRANCH   7   9
ENDBRANCH   1   7
BRANCH   2  11
ATOM     11  O   UNL d   1       9.506  -9.958 -25.823  0.00  0.00    -0.360 OA
ATOM     12  H   UNL d   1       9.337  -9.027 -25.565  0.00  0.00     0.217 HD
ENDBRANCH   2  11
TORSDOF 3
ENDMDL
MODEL 5
REMARK VINA RESULT:      -5.9      2.131      3.323
REMARK  3 active torsions:
REMARK  status: ('A' for Active; 'I' for Inactive)
REMARK    1  A    between atoms: C_1  and  O_3 
REMARK    2  A    between atoms: C_1  and  C_4 
REMARK    3  A    between atoms: C_5  and  O_10 
ROOT
ATOM      1  C   UNL d   1       8.345 -10.175 -24.877  0.00  0.00     0.070 A 
ATOM      2  C   UNL d   1       7.763 -10.494 -26.113  0.00  0.00     0.082 A 
ATOM      3  C   UNL d   1       6.784 -11.483 -26.198  0.00  0.00     0.037 A 
ATOM      4  C   UNL d   1       6.379 -12.168 -25.052  0.00  0.00     0.003 A 
ATOM      5  C   UNL d   1       6.954 -11.865 -23.819  0.00  0.00     0.001 A 
ATOM      6  C   UNL d   1       7.932 -10.872 -23.731  0.00  0.00     0.021 A 
ENDROOT
BRANCH   1   7
ATOM      7  C   UNL d   1       9.382  -9.130 -24.698  0.00  0.00     0.178 C 
ATOM      8  O   UNL d   1      10.278  -8.866 -25.479  0.00  0.00    -0.646 OA
BRANCH   7   9
ATOM      9  O   UNL d   1       9.260  -8.458 -23.535  0.00  0.00    -0.773 OA
ATOM     10  H   UNL d   1       9.919  -8.903 -22.956  0.00  0.00     0.167 HD
ENDBRANCH   7   9
ENDBRANCH   1   7
BRANCH   2  11
ATOM     11  O   UNL d   1       8.097  -9.884 -27.291  0.00  0.00    -0.360 OA
ATOM     12  H   UNL d   1       7.763 -10.449 -28.019  0.00  0.00     0.217 HD
ENDBRANCH   2  11
TORSDOF 3
ENDMDL
MODEL 6
REMARK VINA RESULT:      -5.9      1.899      3.480
REMARK  3 active torsions:
REMARK  status: ('A' for Active; 'I' for Inactive)
REMARK    1  A    between atoms: C_1  and  O_3 
REMARK    2  A    between atoms: C_1  and  C_4 
REMARK    3  A    between atoms: C_5  and  O_10 
ROOT
ATOM      1  C   UNL d   1       6.206 -10.770 -25.181  0.00  0.00     0.070 A 
ATOM      2  C   UNL d   1       5.832 -10.883 -26.528  0.00  0.00     0.082 A 
ATOM      3  C   UNL d   1       5.691  -9.743 -27.320  0.00  0.00     0.037 A 
ATOM      4  C   UNL d   1       5.917  -8.480 -26.775  0.00  0.00     0.003 A 
ATOM      5  C   UNL d   1       6.284  -8.354 -25.435  0.00  0.00     0.001 A 
ATOM      6  C   UNL d   1       6.428  -9.494 -24.642  0.00  0.00     0.021 A 
ENDROOT
BRANCH   1   7
ATOM      7  C   UNL d   1       6.388 -11.930 -24.276  0.00  0.00     0.178 C 
ATOM      8  O   UNL d   1       5.762 -12.974 -24.309  0.00  0.00    -0.646 OA
BRANCH   7   9
ATOM      9  O   UNL d   1       7.351 -11.732 -23.351  0.00  0.00    -0.773 OA
ATOM     10  H   UNL d   1       6.834 -11.548 -22.534  0.00  0.00     0.167 HD
ENDBRANCH   7   9
ENDBRANCH   1   7
BRANCH   2  11
ATOM     11  O   UNL d   1       5.582 -12.075 -27.151  0.00  0.00    -0.360 OA
ATOM     12  H   UNL d   1       5.783 -12.789 -26.509  0.00  0.00     0.217 HD
ENDBRANCH   2  11
TORSDOF 3
ENDMDL
MODEL 7
REMARK VINA RESULT:      -5.9      0.912      2.645
REMARK  3 active torsions:
REMARK  status: ('A' for Active; 'I' for Inactive)
REMARK    1  A    between atoms: C_1  and  O_3 
REMARK    2  A    between atoms: C_1  and  C_4 
REMARK    3  A    between atoms: C_5  and  O_10 
ROOT
ATOM      1  C   UNL d   1       6.880 -10.523 -25.984  0.00  0.00     0.070 A 
ATOM      2  C   UNL d   1       7.866  -9.595 -26.348  0.00  0.00     0.082 A 
ATOM      3  C   UNL d   1       8.813  -9.168 -25.418  0.00  0.00     0.037 A 
ATOM      4  C   UNL d   1       8.782  -9.659 -24.113  0.00  0.00     0.003 A 
ATOM      5  C   UNL d   1       7.803 -10.577 -23.736  0.00  0.00     0.001 A 
ATOM      6  C   UNL d   1       6.856 -11.008 -24.667  0.00  0.00     0.021 A 
ENDROOT
BRANCH   1   7
ATOM      7  C   UNL d   1       5.844 -11.035 -26.914  0.00  0.00     0.178 C 
ATOM      8  O   UNL d   1       5.575 -10.582 -28.011  0.00  0.00    -0.646 OA
BRANCH   7   9
ATOM      9  O   UNL d   1       5.176 -12.101 -26.425  0.00  0.00    -0.773 OA
ATOM     10  H   UNL d   1       4.696 -12.438 -27.216  0.00  0.00     0.167 HD
ENDBRANCH   7   9
ENDBRANCH   1   7
BRANCH   2  11
ATOM     11  O   UNL d   1       7.975  -9.053 -27.600  0.00  0.00    -0.360 OA
ATOM     12  H   UNL d   1       7.196  -9.349 -28.117  0.00  0.00     0.217 HD
ENDBRANCH   2  11
TORSDOF 3
ENDMDL
MODEL 8
REMARK VINA RESULT:      -5.8      2.219      3.197
REMARK  3 active torsions:
REMARK  status: ('A' for Active; 'I' for Inactive)
REMARK    1  A    between atoms: C_1  and  O_3 
REMARK    2  A    between atoms: C_1  and  C_4 
REMARK    3  A    between atoms: C_5  and  O_10 
ROOT
ATOM      1  C   UNL d   1       6.570  -9.980 -26.383  0.00  0.00     0.070 A 
ATOM      2  C   UNL d   1       7.304 -10.339 -27.523  0.00  0.00     0.082 A 
ATOM      3  C   UNL d   1       7.366 -11.670 -27.932  0.00  0.00     0.037 A 
ATOM      4  C   UNL d   1       6.702 -12.658 -27.206  0.00  0.00     0.003 A 
ATOM      5  C   UNL d   1       5.974 -12.315 -26.067  0.00  0.00     0.001 A 
ATOM      6  C   UNL d   1       5.908 -10.982 -25.657  0.00  0.00     0.021 A 
ENDROOT
BRANCH   1   7
ATOM      7  C   UNL d   1       6.444  -8.587 -25.887  0.00  0.00     0.178 C 
ATOM      8  O   UNL d   1       6.397  -8.241 -24.721  0.00  0.00    -0.646 OA
BRANCH   7   9
ATOM      9  O   UNL d   1       6.375  -7.678 -26.881  0.00  0.00    -0.773 OA
ATOM     10  H   UNL d   1       6.886  -6.919 -26.518  0.00  0.00     0.167 HD
ENDBRANCH   7   9
ENDBRANCH   1   7
BRANCH   2  11
ATOM     11  O   UNL d   1       7.993  -9.445 -28.296  0.00  0.00    -0.360 OA
ATOM     12  H   UNL d   1       7.889  -8.561 -27.885  0.00  0.00     0.217 HD
ENDBRANCH   2  11
TORSDOF 3
ENDMDL
MODEL 9
REMARK VINA RESULT:      -5.7      2.566      3.725
REMARK  3 active torsions:
REMARK  status: ('A' for Active; 'I' for Inactive)
REMARK    1  A    between atoms: C_1  and  O_3 
REMARK    2  A    between atoms: C_1  and  C_4 
REMARK    3  A    between atoms: C_5  and  O_10 
ROOT
ATOM      1  C   UNL d   1       7.493 -10.943 -24.607  0.00  0.00     0.070 A 
ATOM      2  C   UNL d   1       8.336 -11.178 -25.703  0.00  0.00     0.082 A 
ATOM      3  C   UNL d   1       8.014 -12.153 -26.646  0.00  0.00     0.037 A 
ATOM      4  C   UNL d   1       6.849 -12.907 -26.504  0.00  0.00     0.003 A 
ATOM      5  C   UNL d   1       6.005 -12.688 -25.416  0.00  0.00     0.001 A 
ATOM      6  C   UNL d   1       6.325 -11.710 -24.472  0.00  0.00     0.021 A 
ENDROOT
BRANCH   1   7
ATOM      7  C   UNL d   1       7.756  -9.919 -23.567  0.00  0.00     0.178 C 
ATOM      8  O   UNL d   1       7.689 -10.084 -22.363  0.00  0.00    -0.646 OA
BRANCH   7   9
ATOM      9  O   UNL d   1       8.090  -8.717 -24.082  0.00  0.00    -0.773 OA
ATOM     10  H   UNL d   1       7.213  -8.311 -24.269  0.00  0.00     0.167 HD
ENDBRANCH   7   9
ENDBRANCH   1   7
BRANCH   2  11
ATOM     11  O   UNL d   1       9.501 -10.495 -25.926  0.00  0.00    -0.360 OA
ATOM     12  H   UNL d   1       9.277  -9.695 -26.446  0.00  0.00     0.217 HD
ENDBRANCH   2  11
TORSDOF 3
ENDMDL
