@<TRIPOS>MOLECULE
SAL
 16 16 0 0 0
SMALL
GASTEIGER

@<TRIPOS>ATOM
      1 C           0.9454    0.0859    0.0342 C.2     1  UNL1        0.3404
      2 O           0.2693    1.0983    0.0213 O.2     1  UNL1       -0.2450
      3 O           0.3638   -1.1317    0.0442 O.3     1  UNL1       -0.4770
      4 C           2.4271    0.0216    0.0490 C.ar    1  UNL1        0.1001
      5 C           3.1560   -1.1756    0.0648 C.ar    1  UNL1        0.1308
      6 C           4.5504   -1.1541    0.0887 C.ar    1  UNL1       -0.0194
      7 C           5.2313    0.0631    0.0929 C.ar    1  UNL1       -0.0583
      8 C           4.5183    1.2607    0.0713 C.ar    1  UNL1       -0.0608
      9 C           3.1217    1.2412    0.0501 C.ar    1  UNL1       -0.0442
     10 O           2.5799   -2.4171    0.0567 O.3     1  UNL1       -0.5059
     11 H          -0.5960   -0.9148    0.0444 H       1  UNL1        0.2954
     12 H           5.1053   -2.0886    0.1047 H       1  UNL1        0.0654
     13 H           6.3184    0.0756    0.1120 H       1  UNL1        0.0619
     14 H           5.0490    2.2100    0.0724 H       1  UNL1        0.0618
     15 H           2.5767    2.1836    0.0357 H       1  UNL1        0.0627
     16 H           1.6080   -2.2891    0.0351 H       1  UNL1        0.2922
@<TRIPOS>BOND
     1     1     2    2
     2     1     3    1
     3     1     4    1
     4     3    11    1
     5     4     5   ar
     6     4     9   ar
     7     5     6   ar
     8     5    10    1
     9     6     7   ar
    10     6    12    1
    11     7     8   ar
    12     7    13    1
    13     8     9   ar
    14     8    14    1
    15     9    15    1
    16    10    16    1
