MODEL 1
REMARK VINA RESULT:      -7.3      0.000      0.000
REMARK  10 active torsions:
REMARK  status: ('A' for Active; 'I' for Inactive)
REMARK    1  A    between atoms: O_4  and  C_21 
REMARK    2  A    between atoms: O_4  and  C_26 
REMARK    3  A    between atoms: O_5  and  C_22 
REMARK    4  A    between atoms: O_8  and  N_12 
REMARK    5  A    between atoms: CA_16  and  N_11 
REMARK       I    between atoms: N_11  and  C_23 
REMARK    6  A    between atoms: N_14  and  C_29 
REMARK    7  A    between atoms: CA_18  and  C_22 
REMARK    8  A    between atoms: C_19  and  C_21 
REMARK    9  A    between atoms: C_23  and  C_24 
REMARK   10  A    between atoms: C_24  and  C_25 
ROOT
ATOM      1  S   UNL d   1      38.381 -10.811  13.438  0.00  0.00    -0.136 SA
ATOM      2  O   UNL d   1      37.637 -14.545  11.804  0.00  0.00    -0.271 OA
ATOM      3  N   UNL d   1      36.664 -12.487  12.287  0.00  0.00    -0.293 N 
ATOM      4  C   UNL d   1      36.934 -11.903  13.599  0.00  0.00     0.187 C 
ATOM      5  CA  UNL d   1      37.179 -13.379  14.079  0.00  0.00     0.211 C 
ATOM      6  C   UNL d   1      37.293 -13.667  12.550  0.00  0.00     0.251 C 
ATOM      7  CA  UNL d   1      36.568 -11.759  11.119  0.00  0.00     0.117 C 
ATOM      8  C   UNL d   1      36.961 -10.452  11.066  0.00  0.00    -0.013 C 
ATOM      9  C   UNL d   1      37.558  -9.708  12.241  0.00  0.00     0.115 C 
ENDROOT
BRANCH   5  10
ATOM     10  N   UNL d   1      38.273 -13.615  15.088  0.00  0.00    -0.339 N 
ATOM     11  C   UNL d   1      38.635 -14.944  15.299  0.00  0.00     0.275 C 
ATOM     12  O   UNL d   1      38.056 -15.844  14.689  0.00  0.00    -0.266 OA
ATOM     13  H   UNL d   1      38.867 -12.880  15.456  0.00  0.00     0.163 HD
BRANCH  11  14
ATOM     14  C   UNL d   1      39.728 -15.345  16.296  0.00  0.00     0.180 C 
ATOM     15  N   UNL d   1      39.671 -16.186  17.285  0.00  0.00    -0.126 NA
BRANCH  15  16
ATOM     16  O   UNL d   1      38.460 -16.848  17.494  0.00  0.00    -0.261 OA
ATOM     17  C   UNL d   1      37.857 -16.227  18.645  0.00  0.00     0.240 C 
ENDBRANCH  15  16
BRANCH  14  18
ATOM     18  C   UNL d   1      40.994 -14.602  16.222  0.00  0.00     0.102 A 
ATOM     19  N   UNL d   1      41.173 -13.544  15.339  0.00  0.00    -0.222 NA
ATOM     20  C   UNL d   1      42.318 -12.952  15.564  0.00  0.00     0.164 A 
ATOM     21  S   UNL d   1      43.300 -13.669  16.772  0.00  0.00    -0.062 SA
ATOM     22  C   UNL d   1      42.082 -14.838  17.050  0.00  0.00     0.087 A 
BRANCH  20  23
ATOM     23  N   UNL d   1      42.712 -11.855  14.902  0.00  0.00    -0.378 N 
ATOM     24  H   UNL d   1      42.805 -10.982  15.403  0.00  0.00     0.158 HD
ATOM     25  H   UNL d   1      43.374 -12.001  14.150  0.00  0.00     0.158 HD
ENDBRANCH  20  23
ENDBRANCH  14  18
ENDBRANCH  11  14
ENDBRANCH   5  10
BRANCH   7  26
ATOM     26  C   UNL d   1      35.882 -12.410   9.930  0.00  0.00     0.194 C 
ATOM     27  OXT UNL d   1      34.665 -12.474   9.810  0.00  0.00    -0.645 OA
BRANCH  26  28
ATOM     28  O   UNL d   1      36.700 -13.054   9.082  0.00  0.00    -0.772 OA
ATOM     29  H   UNL d   1      36.375 -13.920   8.756  0.00  0.00     0.167 HD
ENDBRANCH  26  28
ENDBRANCH   7  26
BRANCH   8  30
ATOM     30  C   UNL d   1      36.915  -9.607   9.801  0.00  0.00     0.216 C 
BRANCH  30  31
ATOM     31  O   UNL d   1      37.117  -8.221  10.119  0.00  0.00    -0.317 OA
BRANCH  31  32
ATOM     32  C   UNL d   1      38.069  -7.571   9.401  0.00  0.00     0.255 C 
ATOM     33  O   UNL d   1      39.008  -6.943   9.868  0.00  0.00    -0.266 OA
ATOM     34  C   UNL d   1      37.816  -7.747   7.934  0.00  0.00     0.126 C 
ENDBRANCH  31  32
ENDBRANCH  30  31
ENDBRANCH   8  30
TORSDOF 10
ENDMDL
MODEL 2
REMARK VINA RESULT:      -7.3      8.256     13.670
REMARK  10 active torsions:
REMARK  status: ('A' for Active; 'I' for Inactive)
REMARK    1  A    between atoms: O_4  and  C_21 
REMARK    2  A    between atoms: O_4  and  C_26 
REMARK    3  A    between atoms: O_5  and  C_22 
REMARK    4  A    between atoms: O_8  and  N_12 
REMARK    5  A    between atoms: CA_16  and  N_11 
REMARK       I    between atoms: N_11  and  C_23 
REMARK    6  A    between atoms: N_14  and  C_29 
REMARK    7  A    between atoms: CA_18  and  C_22 
REMARK    8  A    between atoms: C_19  and  C_21 
REMARK    9  A    between atoms: C_23  and  C_24 
REMARK   10  A    between atoms: C_24  and  C_25 
ROOT
ATOM      1  S   UNL d   1      36.431  -9.751   4.180  0.00  0.00    -0.136 SA
ATOM      2  O   UNL d   1      39.645  -7.232   4.883  0.00  0.00    -0.271 OA
ATOM      3  N   UNL d   1      37.347  -7.461   5.178  0.00  0.00    -0.293 N 
ATOM      4  C   UNL d   1      36.564  -7.942   4.041  0.00  0.00     0.187 C 
ATOM      5  CA  UNL d   1      37.718  -7.358   3.147  0.00  0.00     0.211 C 
ATOM      6  C   UNL d   1      38.518  -7.368   4.486  0.00  0.00     0.251 C 
ATOM      7  CA  UNL d   1      37.103  -7.808   6.490  0.00  0.00     0.117 C 
ATOM      8  C   UNL d   1      36.252  -8.829   6.805  0.00  0.00    -0.013 C 
ATOM      9  C   UNL d   1      35.543  -9.678   5.772  0.00  0.00     0.115 C 
ENDROOT
BRANCH   5  10
ATOM     10  N   UNL d   1      38.097  -8.123   1.906  0.00  0.00    -0.339 N 
ATOM     11  C   UNL d   1      38.919  -7.454   1.001  0.00  0.00     0.275 C 
ATOM     12  O   UNL d   1      39.275  -6.298   1.232  0.00  0.00    -0.266 OA
ATOM     13  H   UNL d   1      37.955  -9.122   1.796  0.00  0.00     0.163 HD
BRANCH  11  14
ATOM     14  C   UNL d   1      39.387  -8.098  -0.309  0.00  0.00     0.180 C 
ATOM     15  N   UNL d   1      40.586  -8.180  -0.803  0.00  0.00    -0.126 NA
BRANCH  15  16
ATOM     16  O   UNL d   1      41.625  -7.621  -0.058  0.00  0.00    -0.261 OA
ATOM     17  C   UNL d   1      42.258  -6.653  -0.915  0.00  0.00     0.240 C 
ENDBRANCH  15  16
BRANCH  14  18
ATOM     18  C   UNL d   1      38.338  -8.597  -1.211  0.00  0.00     0.102 A 
ATOM     19  N   UNL d   1      37.088  -7.996  -1.286  0.00  0.00    -0.222 NA
ATOM     20  C   UNL d   1      36.389  -8.520  -2.260  0.00  0.00     0.164 A 
ATOM     21  S   UNL d   1      37.129  -9.827  -3.086  0.00  0.00    -0.062 SA
ATOM     22  C   UNL d   1      38.514  -9.650  -2.097  0.00  0.00     0.087 A 
BRANCH  20  23
ATOM     23  N   UNL d   1      35.170  -8.077  -2.600  0.00  0.00    -0.378 N 
ATOM     24  H   UNL d   1      35.034  -7.655  -3.509  0.00  0.00     0.158 HD
ATOM     25  H   UNL d   1      34.385  -8.606  -2.241  0.00  0.00     0.158 HD
ENDBRANCH  20  23
ENDBRANCH  14  18
ENDBRANCH  11  14
ENDBRANCH   5  10
BRANCH   7  26
ATOM     26  C   UNL d   1      37.700  -6.933   7.581  0.00  0.00     0.194 C 
ATOM     27  OXT UNL d   1      38.629  -7.290   8.293  0.00  0.00    -0.645 OA
BRANCH  26  28
ATOM     28  O   UNL d   1      37.037  -5.790   7.819  0.00  0.00    -0.772 OA
ATOM     29  H   UNL d   1      36.074  -5.815   7.641  0.00  0.00     0.167 HD
ENDBRANCH  26  28
ENDBRANCH   7  26
BRANCH   8  30
ATOM     30  C   UNL d   1      35.970  -9.285   8.230  0.00  0.00     0.216 C 
BRANCH  30  31
ATOM     31  O   UNL d   1      35.635 -10.682   8.250  0.00  0.00    -0.317 OA
BRANCH  31  32
ATOM     32  C   UNL d   1      35.875 -11.342   9.412  0.00  0.00     0.255 C 
ATOM     33  O   UNL d   1      35.239 -12.297   9.831  0.00  0.00    -0.266 OA
ATOM     34  C   UNL d   1      37.056 -10.739  10.110  0.00  0.00     0.126 C 
ENDBRANCH  31  32
ENDBRANCH  30  31
ENDBRANCH   8  30
TORSDOF 10
ENDMDL
MODEL 3
REMARK VINA RESULT:      -7.3     14.508     19.727
REMARK  10 active torsions:
REMARK  status: ('A' for Active; 'I' for Inactive)
REMARK    1  A    between atoms: O_4  and  C_21 
REMARK    2  A    between atoms: O_4  and  C_26 
REMARK    3  A    between atoms: O_5  and  C_22 
REMARK    4  A    between atoms: O_8  and  N_12 
REMARK    5  A    between atoms: CA_16  and  N_11 
REMARK       I    between atoms: N_11  and  C_23 
REMARK    6  A    between atoms: N_14  and  C_29 
REMARK    7  A    between atoms: CA_18  and  C_22 
REMARK    8  A    between atoms: C_19  and  C_21 
REMARK    9  A    between atoms: C_23  and  C_24 
REMARK   10  A    between atoms: C_24  and  C_25 
ROOT
ATOM      1  S   UNL d   1      36.818  -8.450  -2.387  0.00  0.00    -0.136 SA
ATOM      2  O   UNL d   1      40.523  -7.844  -4.141  0.00  0.00    -0.271 OA
ATOM      3  N   UNL d   1      39.043  -7.000  -2.555  0.00  0.00    -0.293 N 
ATOM      4  C   UNL d   1      37.632  -6.914  -2.926  0.00  0.00     0.187 C 
ATOM      5  CA  UNL d   1      38.144  -6.838  -4.410  0.00  0.00     0.211 C 
ATOM      6  C   UNL d   1      39.468  -7.385  -3.792  0.00  0.00     0.251 C 
ATOM      7  CA  UNL d   1      39.495  -7.348  -1.300  0.00  0.00     0.117 C 
ATOM      8  C   UNL d   1      38.651  -7.879  -0.365  0.00  0.00    -0.013 C 
ATOM      9  C   UNL d   1      37.187  -8.162  -0.625  0.00  0.00     0.115 C 
ENDROOT
BRANCH   5  10
ATOM     10  N   UNL d   1      37.330  -7.534  -5.469  0.00  0.00    -0.339 N 
ATOM     11  C   UNL d   1      36.164  -6.885  -5.870  0.00  0.00     0.275 C 
ATOM     12  O   UNL d   1      35.844  -5.816  -5.349  0.00  0.00    -0.266 OA
ATOM     13  H   UNL d   1      37.674  -8.313  -6.021  0.00  0.00     0.163 HD
BRANCH  11  14
ATOM     14  C   UNL d   1      35.229  -7.468  -6.934  0.00  0.00     0.180 C 
ATOM     15  N   UNL d   1      34.209  -8.260  -6.789  0.00  0.00    -0.126 NA
BRANCH  15  16
ATOM     16  O   UNL d   1      33.879  -8.648  -5.490  0.00  0.00    -0.261 OA
ATOM     17  C   UNL d   1      32.449  -8.813  -5.470  0.00  0.00     0.240 C 
ENDBRANCH  15  16
BRANCH  14  18
ATOM     18  C   UNL d   1      35.582  -7.210  -8.338  0.00  0.00     0.102 A 
ATOM     19  N   UNL d   1      34.955  -7.872  -9.386  0.00  0.00    -0.222 NA
ATOM     20  C   UNL d   1      35.329  -7.367 -10.533  0.00  0.00     0.164 A 
ATOM     21  S   UNL d   1      36.524  -6.140 -10.450  0.00  0.00    -0.062 SA
ATOM     22  C   UNL d   1      36.507  -6.259  -8.743  0.00  0.00     0.087 A 
BRANCH  20  23
ATOM     23  N   UNL d   1      34.823  -7.771 -11.707  0.00  0.00    -0.378 N 
ATOM     24  H   UNL d   1      34.631  -8.753 -11.850  0.00  0.00     0.158 HD
ATOM     25  H   UNL d   1      34.188  -7.129 -12.166  0.00  0.00     0.158 HD
ENDBRANCH  20  23
ENDBRANCH  14  18
ENDBRANCH  11  14
ENDBRANCH   5  10
BRANCH   7  26
ATOM     26  C   UNL d   1      40.928  -6.996  -0.936  0.00  0.00     0.194 C 
ATOM     27  OXT UNL d   1      41.873  -7.751  -1.128  0.00  0.00    -0.645 OA
BRANCH  26  28
ATOM     28  O   UNL d   1      41.077  -5.855  -0.245  0.00  0.00    -0.772 OA
ATOM     29  H   UNL d   1      40.649  -5.065  -0.637  0.00  0.00     0.167 HD
ENDBRANCH  26  28
ENDBRANCH   7  26
BRANCH   8  30
ATOM     30  C   UNL d   1      39.095  -8.318   1.022  0.00  0.00     0.216 C 
BRANCH  30  31
ATOM     31  O   UNL d   1      37.952  -8.565   1.857  0.00  0.00    -0.317 OA
BRANCH  31  32
ATOM     32  C   UNL d   1      38.070  -8.205   3.161  0.00  0.00     0.255 C 
ATOM     33  O   UNL d   1      39.070  -7.735   3.682  0.00  0.00    -0.266 OA
ATOM     34  C   UNL d   1      36.778  -8.452   3.880  0.00  0.00     0.126 C 
ENDBRANCH  31  32
ENDBRANCH  30  31
ENDBRANCH   8  30
TORSDOF 10
ENDMDL
MODEL 4
REMARK VINA RESULT:      -7.3     15.482     19.489
REMARK  10 active torsions:
REMARK  status: ('A' for Active; 'I' for Inactive)
REMARK    1  A    between atoms: O_4  and  C_21 
REMARK    2  A    between atoms: O_4  and  C_26 
REMARK    3  A    between atoms: O_5  and  C_22 
REMARK    4  A    between atoms: O_8  and  N_12 
REMARK    5  A    between atoms: CA_16  and  N_11 
REMARK       I    between atoms: N_11  and  C_23 
REMARK    6  A    between atoms: N_14  and  C_29 
REMARK    7  A    between atoms: CA_18  and  C_22 
REMARK    8  A    between atoms: C_19  and  C_21 
REMARK    9  A    between atoms: C_23  and  C_24 
REMARK   10  A    between atoms: C_24  and  C_25 
ROOT
ATOM      1  S   UNL d   1      39.650  -7.236  -4.276  0.00  0.00    -0.136 SA
ATOM      2  O   UNL d   1      37.249  -5.489  -1.387  0.00  0.00    -0.271 OA
ATOM      3  N   UNL d   1      38.711  -7.256  -1.787  0.00  0.00    -0.293 N 
ATOM      4  C   UNL d   1      38.553  -7.994  -3.038  0.00  0.00     0.187 C 
ATOM      5  CA  UNL d   1      37.055  -7.518  -2.996  0.00  0.00     0.211 C 
ATOM      6  C   UNL d   1      37.599  -6.486  -1.961  0.00  0.00     0.251 C 
ATOM      7  CA  UNL d   1      39.928  -6.960  -1.209  0.00  0.00     0.117 C 
ATOM      8  C   UNL d   1      41.097  -7.130  -1.896  0.00  0.00    -0.013 C 
ATOM      9  C   UNL d   1      41.164  -7.609  -3.330  0.00  0.00     0.115 C 
ENDROOT
BRANCH   5  10
ATOM     10  N   UNL d   1      36.395  -7.167  -4.304  0.00  0.00    -0.339 N 
ATOM     11  C   UNL d   1      35.726  -8.205  -4.950  0.00  0.00     0.275 C 
ATOM     12  O   UNL d   1      35.716  -9.333  -4.455  0.00  0.00    -0.266 OA
ATOM     13  H   UNL d   1      36.250  -6.215  -4.623  0.00  0.00     0.163 HD
BRANCH  11  14
ATOM     14  C   UNL d   1      35.009  -8.006  -6.289  0.00  0.00     0.180 C 
ATOM     15  N   UNL d   1      33.807  -8.353  -6.639  0.00  0.00    -0.126 NA
BRANCH  15  16
ATOM     16  O   UNL d   1      33.021  -8.994  -5.680  0.00  0.00    -0.261 OA
ATOM     17  C   UNL d   1      32.409  -7.950  -4.899  0.00  0.00     0.240 C 
ENDBRANCH  15  16
BRANCH  14  18
ATOM     18  C   UNL d   1      35.809  -7.452  -7.392  0.00  0.00     0.102 A 
ATOM     19  N   UNL d   1      35.282  -7.279  -8.666  0.00  0.00    -0.222 NA
ATOM     20  C   UNL d   1      36.131  -6.637  -9.426  0.00  0.00     0.164 A 
ATOM     21  S   UNL d   1      37.648  -6.283  -8.711  0.00  0.00    -0.062 SA
ATOM     22  C   UNL d   1      37.114  -7.003  -7.254  0.00  0.00     0.087 A 
BRANCH  20  23
ATOM     23  N   UNL d   1      35.849  -6.273 -10.685  0.00  0.00    -0.378 N 
ATOM     24  H   UNL d   1      36.540  -6.422 -11.409  0.00  0.00     0.158 HD
ATOM     25  H   UNL d   1      34.884  -6.371 -10.974  0.00  0.00     0.158 HD
ENDBRANCH  20  23
ENDBRANCH  14  18
ENDBRANCH  11  14
ENDBRANCH   5  10
BRANCH   7  26
ATOM     26  C   UNL d   1      39.943  -6.574   0.261  0.00  0.00     0.194 C 
ATOM     27  OXT UNL d   1      39.772  -7.379   1.167  0.00  0.00    -0.645 OA
BRANCH  26  28
ATOM     28  O   UNL d   1      40.005  -5.255   0.503  0.00  0.00    -0.772 OA
ATOM     29  H   UNL d   1      40.210  -4.692  -0.273  0.00  0.00     0.167 HD
ENDBRANCH  26  28
ENDBRANCH   7  26
BRANCH   8  30
ATOM     30  C   UNL d   1      42.467  -6.788  -1.329  0.00  0.00     0.216 C 
BRANCH  30  31
ATOM     31  O   UNL d   1      42.897  -7.807  -0.412  0.00  0.00    -0.317 OA
BRANCH  31  32
ATOM     32  C   UNL d   1      44.159  -7.686   0.075  0.00  0.00     0.255 C 
ATOM     33  O   UNL d   1      44.522  -8.007   1.196  0.00  0.00    -0.266 OA
ATOM     34  C   UNL d   1      45.062  -7.114  -0.975  0.00  0.00     0.126 C 
ENDBRANCH  31  32
ENDBRANCH  30  31
ENDBRANCH   8  30
TORSDOF 10
ENDMDL
MODEL 5
REMARK VINA RESULT:      -7.2      3.139      8.558
REMARK  10 active torsions:
REMARK  status: ('A' for Active; 'I' for Inactive)
REMARK    1  A    between atoms: O_4  and  C_21 
REMARK    2  A    between atoms: O_4  and  C_26 
REMARK    3  A    between atoms: O_5  and  C_22 
REMARK    4  A    between atoms: O_8  and  N_12 
REMARK    5  A    between atoms: CA_16  and  N_11 
REMARK       I    between atoms: N_11  and  C_23 
REMARK    6  A    between atoms: N_14  and  C_29 
REMARK    7  A    between atoms: CA_18  and  C_22 
REMARK    8  A    between atoms: C_19  and  C_21 
REMARK    9  A    between atoms: C_23  and  C_24 
REMARK   10  A    between atoms: C_24  and  C_25 
ROOT
ATOM      1  S   UNL d   1      37.226 -14.131  13.227  0.00  0.00    -0.136 SA
ATOM      2  O   UNL d   1      39.974 -11.069  13.720  0.00  0.00    -0.271 OA
ATOM      3  N   UNL d   1      38.302 -12.274  14.801  0.00  0.00    -0.293 N 
ATOM      4  C   UNL d   1      37.064 -12.523  14.065  0.00  0.00     0.187 C 
ATOM      5  CA  UNL d   1      37.426 -11.230  13.247  0.00  0.00     0.211 C 
ATOM      6  C   UNL d   1      38.845 -11.462  13.850  0.00  0.00     0.251 C 
ATOM      7  CA  UNL d   1      38.893 -13.183  15.653  0.00  0.00     0.117 C 
ATOM      8  C   UNL d   1      38.490 -14.489  15.686  0.00  0.00    -0.013 C 
ATOM      9  C   UNL d   1      37.411 -15.054  14.789  0.00  0.00     0.115 C 
ENDROOT
BRANCH   5  10
ATOM     10  N   UNL d   1      37.101 -11.219  11.776  0.00  0.00    -0.339 N 
ATOM     11  C   UNL d   1      36.944  -9.963  11.193  0.00  0.00     0.275 C 
ATOM     12  O   UNL d   1      37.052  -8.947  11.881  0.00  0.00    -0.266 OA
ATOM     13  H   UNL d   1      37.185 -12.032  11.175  0.00  0.00     0.163 HD
BRANCH  11  14
ATOM     14  C   UNL d   1      36.609  -9.787   9.708  0.00  0.00     0.180 C 
ATOM     15  N   UNL d   1      35.889 -10.541   8.932  0.00  0.00    -0.126 NA
BRANCH  15  16
ATOM     16  O   UNL d   1      35.313 -11.678   9.499  0.00  0.00    -0.261 OA
ATOM     17  C   UNL d   1      36.040 -12.803   8.971  0.00  0.00     0.240 C 
ENDBRANCH  15  16
BRANCH  14  18
ATOM     18  C   UNL d   1      37.279  -8.682   9.006  0.00  0.00     0.102 A 
ATOM     19  N   UNL d   1      37.268  -8.581   7.620  0.00  0.00    -0.222 NA
ATOM     20  C   UNL d   1      37.795  -7.444   7.242  0.00  0.00     0.164 A 
ATOM     21  S   UNL d   1      38.428  -6.466   8.500  0.00  0.00    -0.062 SA
ATOM     22  C   UNL d   1      37.917  -7.630   9.645  0.00  0.00     0.087 A 
BRANCH  20  23
ATOM     23  N   UNL d   1      37.846  -7.056   5.961  0.00  0.00    -0.378 N 
ATOM     24  H   UNL d   1      37.260  -7.520   5.280  0.00  0.00     0.158 HD
ATOM     25  H   UNL d   1      38.010  -6.070   5.798  0.00  0.00     0.158 HD
ENDBRANCH  20  23
ENDBRANCH  14  18
ENDBRANCH  11  14
ENDBRANCH   5  10
BRANCH   7  26
ATOM     26  C   UNL d   1      39.911 -12.662  16.654  0.00  0.00     0.194 C 
ATOM     27  OXT UNL d   1      39.608 -12.256  17.769  0.00  0.00    -0.645 OA
BRANCH  26  28
ATOM     28  O   UNL d   1      41.161 -12.531  16.180  0.00  0.00    -0.772 OA
ATOM     29  H   UNL d   1      41.878 -12.709  16.825  0.00  0.00     0.167 HD
ENDBRANCH  26  28
ENDBRANCH   7  26
BRANCH   8  30
ATOM     30  C   UNL d   1      39.127 -15.547  16.574  0.00  0.00     0.216 C 
BRANCH  30  31
ATOM     31  O   UNL d   1      39.792 -16.536  15.774  0.00  0.00    -0.317 OA
BRANCH  31  32
ATOM     32  C   UNL d   1      40.997 -16.182  15.257  0.00  0.00     0.255 C 
ATOM     33  O   UNL d   1      41.225 -15.950  14.079  0.00  0.00    -0.266 OA
ATOM     34  C   UNL d   1      42.019 -16.095  16.349  0.00  0.00     0.126 C 
ENDBRANCH  31  32
ENDBRANCH  30  31
ENDBRANCH   8  30
TORSDOF 10
ENDMDL
MODEL 6
REMARK VINA RESULT:      -7.2     15.262     20.265
REMARK  10 active torsions:
REMARK  status: ('A' for Active; 'I' for Inactive)
REMARK    1  A    between atoms: O_4  and  C_21 
REMARK    2  A    between atoms: O_4  and  C_26 
REMARK    3  A    between atoms: O_5  and  C_22 
REMARK    4  A    between atoms: O_8  and  N_12 
REMARK    5  A    between atoms: CA_16  and  N_11 
REMARK       I    between atoms: N_11  and  C_23 
REMARK    6  A    between atoms: N_14  and  C_29 
REMARK    7  A    between atoms: CA_18  and  C_22 
REMARK    8  A    between atoms: C_19  and  C_21 
REMARK    9  A    between atoms: C_23  and  C_24 
REMARK   10  A    between atoms: C_24  and  C_25 
ROOT
ATOM      1  S   UNL d   1      38.112  -9.373  -3.498  0.00  0.00    -0.136 SA
ATOM      2  O   UNL d   1      41.857  -7.601  -3.468  0.00  0.00    -0.271 OA
ATOM      3  N   UNL d   1      39.674  -7.375  -2.694  0.00  0.00    -0.293 N 
ATOM      4  C   UNL d   1      38.591  -7.623  -3.643  0.00  0.00     0.187 C 
ATOM      5  CA  UNL d   1      39.632  -7.237  -4.756  0.00  0.00     0.211 C 
ATOM      6  C   UNL d   1      40.670  -7.483  -3.618  0.00  0.00     0.251 C 
ATOM      7  CA  UNL d   1      39.638  -7.737  -1.364  0.00  0.00     0.117 C 
ATOM      8  C   UNL d   1      38.675  -8.580  -0.886  0.00  0.00    -0.013 C 
ATOM      9  C   UNL d   1      37.606  -9.209  -1.754  0.00  0.00     0.115 C 
ENDROOT
BRANCH   5  10
ATOM     10  N   UNL d   1      39.578  -7.994  -6.057  0.00  0.00    -0.339 N 
ATOM     11  C   UNL d   1      38.818  -7.414  -7.072  0.00  0.00     0.275 C 
ATOM     12  O   UNL d   1      38.226  -6.353  -6.868  0.00  0.00    -0.266 OA
ATOM     13  H   UNL d   1      40.198  -8.764  -6.287  0.00  0.00     0.163 HD
BRANCH  11  14
ATOM     14  C   UNL d   1      38.664  -8.064  -8.451  0.00  0.00     0.180 C 
ATOM     15  N   UNL d   1      39.042  -9.241  -8.853  0.00  0.00    -0.126 NA
BRANCH  15  16
ATOM     16  O   UNL d   1      39.673 -10.064  -7.920  0.00  0.00    -0.261 OA
ATOM     17  C   UNL d   1      39.981 -11.290  -8.609  0.00  0.00     0.240 C 
ENDBRANCH  15  16
BRANCH  14  18
ATOM     18  C   UNL d   1      38.123  -7.217  -9.524  0.00  0.00     0.102 A 
ATOM     19  N   UNL d   1      38.877  -6.210 -10.114  0.00  0.00    -0.222 NA
ATOM     20  C   UNL d   1      38.238  -5.702 -11.136  0.00  0.00     0.164 A 
ATOM     21  S   UNL d   1      36.660  -6.316 -11.405  0.00  0.00    -0.062 SA
ATOM     22  C   UNL d   1      36.862  -7.379 -10.079  0.00  0.00     0.087 A 
BRANCH  20  23
ATOM     23  N   UNL d   1      38.766  -4.761 -11.931  0.00  0.00    -0.378 N 
ATOM     24  H   UNL d   1      38.333  -4.567 -12.823  0.00  0.00     0.158 HD
ATOM     25  H   UNL d   1      39.184  -3.965 -11.465  0.00  0.00     0.158 HD
ENDBRANCH  20  23
ENDBRANCH  14  18
ENDBRANCH  11  14
ENDBRANCH   5  10
BRANCH   7  26
ATOM     26  C   UNL d   1      40.616  -7.063  -0.415  0.00  0.00     0.194 C 
ATOM     27  OXT UNL d   1      41.763  -7.456  -0.244  0.00  0.00    -0.645 OA
BRANCH  26  28
ATOM     28  O   UNL d   1      40.092  -6.089   0.346  0.00  0.00    -0.772 OA
ATOM     29  H   UNL d   1      40.651  -5.291   0.456  0.00  0.00     0.167 HD
ENDBRANCH  26  28
ENDBRANCH   7  26
BRANCH   8  30
ATOM     30  C   UNL d   1      38.602  -9.047   0.561  0.00  0.00     0.216 C 
BRANCH  30  31
ATOM     31  O   UNL d   1      37.820  -8.130   1.343  0.00  0.00    -0.317 OA
BRANCH  31  32
ATOM     32  C   UNL d   1      38.177  -7.993   2.646  0.00  0.00     0.255 C 
ATOM     33  O   UNL d   1      39.235  -7.533   3.048  0.00  0.00    -0.266 OA
ATOM     34  C   UNL d   1      37.071  -8.473   3.535  0.00  0.00     0.126 C 
ENDBRANCH  31  32
ENDBRANCH  30  31
ENDBRANCH   8  30
TORSDOF 10
ENDMDL
MODEL 7
REMARK VINA RESULT:      -7.1     16.563     21.643
REMARK  10 active torsions:
REMARK  status: ('A' for Active; 'I' for Inactive)
REMARK    1  A    between atoms: O_4  and  C_21 
REMARK    2  A    between atoms: O_4  and  C_26 
REMARK    3  A    between atoms: O_5  and  C_22 
REMARK    4  A    between atoms: O_8  and  N_12 
REMARK    5  A    between atoms: CA_16  and  N_11 
REMARK       I    between atoms: N_11  and  C_23 
REMARK    6  A    between atoms: N_14  and  C_29 
REMARK    7  A    between atoms: CA_18  and  C_22 
REMARK    8  A    between atoms: C_19  and  C_21 
REMARK    9  A    between atoms: C_23  and  C_24 
REMARK   10  A    between atoms: C_24  and  C_25 
ROOT
ATOM      1  S   UNL d   1      36.645  -7.015  -4.969  0.00  0.00    -0.136 SA
ATOM      2  O   UNL d   1      38.662 -10.565  -5.672  0.00  0.00    -0.271 OA
ATOM      3  N   UNL d   1      38.826  -8.498  -4.615  0.00  0.00    -0.293 N 
ATOM      4  C   UNL d   1      38.396  -7.320  -5.364  0.00  0.00     0.187 C 
ATOM      5  CA  UNL d   1      38.721  -8.161  -6.652  0.00  0.00     0.211 C 
ATOM      6  C   UNL d   1      38.681  -9.363  -5.659  0.00  0.00     0.251 C 
ATOM      7  CA  UNL d   1      38.618  -8.677  -3.263  0.00  0.00     0.117 C 
ATOM      8  C   UNL d   1      37.772  -7.863  -2.564  0.00  0.00    -0.013 C 
ATOM      9  C   UNL d   1      36.975  -6.743  -3.196  0.00  0.00     0.115 C 
ENDROOT
BRANCH   5  10
ATOM     10  N   UNL d   1      37.817  -7.993  -7.845  0.00  0.00    -0.339 N 
ATOM     11  C   UNL d   1      38.371  -7.342  -8.946  0.00  0.00     0.275 C 
ATOM     12  O   UNL d   1      39.529  -6.926  -8.896  0.00  0.00    -0.266 OA
ATOM     13  H   UNL d   1      36.935  -8.482  -7.956  0.00  0.00     0.163 HD
BRANCH  11  14
ATOM     14  C   UNL d   1      37.576  -7.091 -10.232  0.00  0.00     0.180 C 
ATOM     15  N   UNL d   1      37.568  -6.046 -11.004  0.00  0.00    -0.126 NA
BRANCH  15  16
ATOM     16  O   UNL d   1      38.397  -4.982 -10.649  0.00  0.00    -0.261 OA
ATOM     17  C   UNL d   1      38.979  -4.500 -11.875  0.00  0.00     0.240 C 
ENDBRANCH  15  16
BRANCH  14  18
ATOM     18  C   UNL d   1      36.586  -8.112 -10.606  0.00  0.00     0.102 A 
ATOM     19  N   UNL d   1      36.965  -9.363 -11.077  0.00  0.00    -0.222 NA
ATOM     20  C   UNL d   1      35.919 -10.141 -11.196  0.00  0.00     0.164 A 
ATOM     21  S   UNL d   1      34.407  -9.409 -10.853  0.00  0.00    -0.062 SA
ATOM     22  C   UNL d   1      35.216  -7.951 -10.469  0.00  0.00     0.087 A 
BRANCH  20  23
ATOM     23  N   UNL d   1      36.007 -11.427 -11.564  0.00  0.00    -0.378 N 
ATOM     24  H   UNL d   1      35.408 -12.110 -11.119  0.00  0.00     0.158 HD
ATOM     25  H   UNL d   1      36.221 -11.600 -12.538  0.00  0.00     0.158 HD
ENDBRANCH  20  23
ENDBRANCH  14  18
ENDBRANCH  11  14
ENDBRANCH   5  10
BRANCH   7  26
ATOM     26  C   UNL d   1      39.464  -9.715  -2.544  0.00  0.00     0.194 C 
ATOM     27  OXT UNL d   1      39.075 -10.853  -2.314  0.00  0.00    -0.645 OA
BRANCH  26  28
ATOM     28  O   UNL d   1      40.619  -9.257  -2.036  0.00  0.00    -0.772 OA
ATOM     29  H   UNL d   1      41.390  -9.294  -2.639  0.00  0.00     0.167 HD
ENDBRANCH  26  28
ENDBRANCH   7  26
BRANCH   8  30
ATOM     30  C   UNL d   1      37.472  -8.030  -1.082  0.00  0.00     0.216 C 
BRANCH  30  31
ATOM     31  O   UNL d   1      36.931  -6.815  -0.542  0.00  0.00    -0.317 OA
BRANCH  31  32
ATOM     32  C   UNL d   1      37.476  -6.377   0.622  0.00  0.00     0.255 C 
ATOM     33  O   UNL d   1      36.922  -6.374   1.711  0.00  0.00    -0.266 OA
ATOM     34  C   UNL d   1      38.880  -5.907   0.386  0.00  0.00     0.126 C 
ENDBRANCH  31  32
ENDBRANCH  30  31
ENDBRANCH   8  30
TORSDOF 10
ENDMDL
MODEL 8
REMARK VINA RESULT:      -7.1     16.042     21.108
REMARK  10 active torsions:
REMARK  status: ('A' for Active; 'I' for Inactive)
REMARK    1  A    between atoms: O_4  and  C_21 
REMARK    2  A    between atoms: O_4  and  C_26 
REMARK    3  A    between atoms: O_5  and  C_22 
REMARK    4  A    between atoms: O_8  and  N_12 
REMARK    5  A    between atoms: CA_16  and  N_11 
REMARK       I    between atoms: N_11  and  C_23 
REMARK    6  A    between atoms: N_14  and  C_29 
REMARK    7  A    between atoms: CA_18  and  C_22 
REMARK    8  A    between atoms: C_19  and  C_21 
REMARK    9  A    between atoms: C_23  and  C_24 
REMARK   10  A    between atoms: C_24  and  C_25 
ROOT
ATOM      1  S   UNL d   1      36.877  -9.518  -4.281  0.00  0.00    -0.136 SA
ATOM      2  O   UNL d   1      40.376  -7.419  -5.002  0.00  0.00    -0.271 OA
ATOM      3  N   UNL d   1      38.356  -7.348  -3.849  0.00  0.00    -0.293 N 
ATOM      4  C   UNL d   1      37.149  -7.743  -4.574  0.00  0.00     0.187 C 
ATOM      5  CA  UNL d   1      37.931  -7.325  -5.872  0.00  0.00     0.211 C 
ATOM      6  C   UNL d   1      39.175  -7.416  -4.936  0.00  0.00     0.251 C 
ATOM      7  CA  UNL d   1      38.594  -7.641  -2.523  0.00  0.00     0.117 C 
ATOM      8  C   UNL d   1      37.819  -8.540  -1.846  0.00  0.00    -0.013 C 
ATOM      9  C   UNL d   1      36.679  -9.307  -2.481  0.00  0.00     0.115 C 
ENDROOT
BRANCH   5  10
ATOM     10  N   UNL d   1      37.719  -8.151  -7.113  0.00  0.00    -0.339 N 
ATOM     11  C   UNL d   1      38.263  -7.639  -8.290  0.00  0.00     0.275 C 
ATOM     12  O   UNL d   1      38.858  -6.560  -8.275  0.00  0.00    -0.266 OA
ATOM     13  H   UNL d   1      37.390  -9.111  -7.101  0.00  0.00     0.163 HD
BRANCH  11  14
ATOM     14  C   UNL d   1      38.128  -8.361  -9.635  0.00  0.00     0.180 C 
ATOM     15  N   UNL d   1      38.898  -9.263 -10.165  0.00  0.00    -0.126 NA
BRANCH  15  16
ATOM     16  O   UNL d   1      40.014  -9.666  -9.430  0.00  0.00    -0.261 OA
ATOM     17  C   UNL d   1      39.711 -10.981  -8.929  0.00  0.00     0.240 C 
ENDBRANCH  15  16
BRANCH  14  18
ATOM     18  C   UNL d   1      37.050  -7.905 -10.525  0.00  0.00     0.102 A 
ATOM     19  N   UNL d   1      35.992  -8.733 -10.879  0.00  0.00    -0.222 NA
ATOM     20  C   UNL d   1      35.092  -8.060 -11.548  0.00  0.00     0.164 A 
ATOM     21  S   UNL d   1      35.486  -6.426 -11.888  0.00  0.00    -0.062 SA
ATOM     22  C   UNL d   1      36.956  -6.618 -11.032  0.00  0.00     0.087 A 
BRANCH  20  23
ATOM     23  N   UNL d   1      33.932  -8.597 -11.952  0.00  0.00    -0.378 N 
ATOM     24  H   UNL d   1      33.938  -9.500 -12.408  0.00  0.00     0.158 HD
ATOM     25  H   UNL d   1      33.123  -8.404 -11.374  0.00  0.00     0.158 HD
ENDBRANCH  20  23
ENDBRANCH  14  18
ENDBRANCH  11  14
ENDBRANCH   5  10
BRANCH   7  26
ATOM     26  C   UNL d   1      39.655  -6.833  -1.795  0.00  0.00     0.194 C 
ATOM     27  OXT UNL d   1      40.833  -7.165  -1.743  0.00  0.00    -0.645 OA
BRANCH  26  28
ATOM     28  O   UNL d   1      39.191  -5.800  -1.074  0.00  0.00    -0.772 OA
ATOM     29  H   UNL d   1      38.685  -5.127  -1.578  0.00  0.00     0.167 HD
ENDBRANCH  26  28
ENDBRANCH   7  26
BRANCH   8  30
ATOM     30  C   UNL d   1      38.053  -8.934  -0.395  0.00  0.00     0.216 C 
BRANCH  30  31
ATOM     31  O   UNL d   1      37.584  -7.901   0.485  0.00  0.00    -0.317 OA
BRANCH  31  32
ATOM     32  C   UNL d   1      38.299  -7.708   1.624  0.00  0.00     0.255 C 
ATOM     33  O   UNL d   1      39.207  -6.903   1.765  0.00  0.00    -0.266 OA
ATOM     34  C   UNL d   1      37.800  -8.620   2.703  0.00  0.00     0.126 C 
ENDBRANCH  31  32
ENDBRANCH  30  31
ENDBRANCH   8  30
TORSDOF 10
ENDMDL
MODEL 9
REMARK VINA RESULT:      -6.9     14.693     19.575
REMARK  10 active torsions:
REMARK  status: ('A' for Active; 'I' for Inactive)
REMARK    1  A    between atoms: O_4  and  C_21 
REMARK    2  A    between atoms: O_4  and  C_26 
REMARK    3  A    between atoms: O_5  and  C_22 
REMARK    4  A    between atoms: O_8  and  N_12 
REMARK    5  A    between atoms: CA_16  and  N_11 
REMARK       I    between atoms: N_11  and  C_23 
REMARK    6  A    between atoms: N_14  and  C_29 
REMARK    7  A    between atoms: CA_18  and  C_22 
REMARK    8  A    between atoms: C_19  and  C_21 
REMARK    9  A    between atoms: C_23  and  C_24 
REMARK   10  A    between atoms: C_24  and  C_25 
ROOT
ATOM      1  S   UNL d   1      37.847  -9.169  -2.364  0.00  0.00    -0.136 SA
ATOM      2  O   UNL d   1      41.453  -7.303  -3.187  0.00  0.00    -0.271 OA
ATOM      3  N   UNL d   1      39.341  -6.969  -2.267  0.00  0.00    -0.293 N 
ATOM      4  C   UNL d   1      38.193  -7.499  -3.000  0.00  0.00     0.187 C 
ATOM      5  CA  UNL d   1      39.098  -7.376  -4.279  0.00  0.00     0.211 C 
ATOM      6  C   UNL d   1      40.252  -7.275  -3.234  0.00  0.00     0.251 C 
ATOM      7  CA  UNL d   1      39.453  -6.974  -0.892  0.00  0.00     0.117 C 
ATOM      8  C   UNL d   1      38.596  -7.701  -0.115  0.00  0.00    -0.013 C 
ATOM      9  C   UNL d   1      37.496  -8.576  -0.675  0.00  0.00     0.115 C 
ENDROOT
BRANCH   5  10
ATOM     10  N   UNL d   1      38.974  -8.446  -5.331  0.00  0.00    -0.339 N 
ATOM     11  C   UNL d   1      39.499  -8.138  -6.585  0.00  0.00     0.275 C 
ATOM     12  O   UNL d   1      40.009  -7.034  -6.783  0.00  0.00    -0.266 OA
ATOM     13  H   UNL d   1      38.719  -9.407  -5.128  0.00  0.00     0.163 HD
BRANCH  11  14
ATOM     14  C   UNL d   1      39.445  -9.121  -7.758  0.00  0.00     0.180 C 
ATOM     15  N   UNL d   1      39.442 -10.421  -7.743  0.00  0.00    -0.126 NA
BRANCH  15  16
ATOM     16  O   UNL d   1      39.482 -11.047  -6.497  0.00  0.00    -0.261 OA
ATOM     17  C   UNL d   1      40.544 -12.015  -6.568  0.00  0.00     0.240 C 
ENDBRANCH  15  16
BRANCH  14  18
ATOM     18  C   UNL d   1      39.528  -8.545  -9.109  0.00  0.00     0.102 A 
ATOM     19  N   UNL d   1      38.476  -7.828  -9.665  0.00  0.00    -0.222 NA
ATOM     20  C   UNL d   1      38.842  -7.292 -10.801  0.00  0.00     0.164 A 
ATOM     21  S   UNL d   1      40.424  -7.684 -11.332  0.00  0.00    -0.062 SA
ATOM     22  C   UNL d   1      40.658  -8.605  -9.910  0.00  0.00     0.087 A 
BRANCH  20  23
ATOM     23  N   UNL d   1      38.043  -6.488 -11.517  0.00  0.00    -0.378 N 
ATOM     24  H   UNL d   1      38.295  -5.516 -11.633  0.00  0.00     0.158 HD
ATOM     25  H   UNL d   1      37.569  -6.914 -12.305  0.00  0.00     0.158 HD
ENDBRANCH  20  23
ENDBRANCH  14  18
ENDBRANCH  11  14
ENDBRANCH   5  10
BRANCH   7  26
ATOM     26  C   UNL d   1      40.468  -6.038  -0.258  0.00  0.00     0.194 C 
ATOM     27  OXT UNL d   1      40.196  -4.900   0.104  0.00  0.00    -0.645 OA
BRANCH  26  28
ATOM     28  O   UNL d   1      41.734  -6.485  -0.258  0.00  0.00    -0.772 OA
ATOM     29  H   UNL d   1      42.067  -6.812   0.605  0.00  0.00     0.167 HD
ENDBRANCH  26  28
ENDBRANCH   7  26
BRANCH   8  30
ATOM     30  C   UNL d   1      38.690  -7.777   1.402  0.00  0.00     0.216 C 
BRANCH  30  31
ATOM     31  O   UNL d   1      37.573  -7.105   2.005  0.00  0.00    -0.317 OA
BRANCH  31  32
ATOM     32  C   UNL d   1      37.049  -7.685   3.116  0.00  0.00     0.255 C 
ATOM     33  O   UNL d   1      36.367  -7.121   3.958  0.00  0.00    -0.266 OA
ATOM     34  C   UNL d   1      37.414  -9.138   3.157  0.00  0.00     0.126 C 
ENDBRANCH  31  32
ENDBRANCH  30  31
ENDBRANCH   8  30
TORSDOF 10
ENDMDL
