MODEL 1
REMARK VINA RESULT:      -4.0      0.000      0.000
REMARK  2 active torsions:
REMARK  status: ('A' for Active; 'I' for Inactive)
REMARK    1  A    between atoms: C_1  and  O_3 
REMARK    2  A    between atoms: C_1  and  C_4 
ROOT
ATOM      1  C   UNL d   1       7.681 -10.747 -27.571  0.00  0.00     0.213 C 
ATOM      2  O   UNL d   1       8.662 -11.223 -27.033  0.00  0.00    -0.644 OA
ENDROOT
BRANCH   1   3
ATOM      3  O   UNL d   1       7.692  -9.551 -28.164  0.00  0.00    -0.771 OA
ATOM      4  H   UNL d   1       8.580  -9.464 -28.566  0.00  0.00     0.168 HD
ENDBRANCH   1   3
BRANCH   1   5
ATOM      5  C   UNL d   1       6.318 -11.454 -27.635  0.00  0.00     0.218 C 
ATOM      6  O   UNL d   1       5.771 -11.687 -28.705  0.00  0.00    -0.286 OA
ATOM      7  C   UNL d   1       5.726 -11.829 -26.308  0.00  0.00     0.103 C 
ENDBRANCH   1   5
TORSDOF 2
ENDMDL
MODEL 2
REMARK VINA RESULT:      -4.0      3.745      4.377
REMARK  2 active torsions:
REMARK  status: ('A' for Active; 'I' for Inactive)
REMARK    1  A    between atoms: C_1  and  O_3 
REMARK    2  A    between atoms: C_1  and  C_4 
ROOT
ATOM      1  C   UNL d   1       9.412  -9.188 -24.414  0.00  0.00     0.213 C 
ATOM      2  O   UNL d   1      10.139  -8.912 -25.349  0.00  0.00    -0.644 OA
ENDROOT
BRANCH   1   3
ATOM      3  O   UNL d   1       9.202  -8.354 -23.393  0.00  0.00    -0.771 OA
ATOM      4  H   UNL d   1       9.292  -7.454 -23.765  0.00  0.00     0.168 HD
ENDBRANCH   1   3
BRANCH   1   5
ATOM      5  C   UNL d   1       8.651 -10.517 -24.291  0.00  0.00     0.218 C 
ATOM      6  O   UNL d   1       8.186 -10.888 -23.221  0.00  0.00    -0.286 OA
ATOM      7  C   UNL d   1       8.526 -11.306 -25.562  0.00  0.00     0.103 C 
ENDBRANCH   1   5
TORSDOF 2
ENDMDL
MODEL 3
REMARK VINA RESULT:      -4.0      1.137      2.585
REMARK  2 active torsions:
REMARK  status: ('A' for Active; 'I' for Inactive)
REMARK    1  A    between atoms: C_1  and  O_3 
REMARK    2  A    between atoms: C_1  and  C_4 
ROOT
ATOM      1  C   UNL d   1       6.165 -11.693 -27.650  0.00  0.00     0.213 C 
ATOM      2  O   UNL d   1       5.490 -12.072 -26.712  0.00  0.00    -0.644 OA
ENDROOT
BRANCH   1   3
ATOM      3  O   UNL d   1       5.737 -11.745 -28.913  0.00  0.00    -0.771 OA
ATOM      4  H   UNL d   1       5.818 -10.833 -29.256  0.00  0.00     0.168 HD
ENDBRANCH   1   3
BRANCH   1   5
ATOM      5  C   UNL d   1       7.581 -11.114 -27.501  0.00  0.00     0.218 C 
ATOM      6  O   UNL d   1       7.933 -10.124 -28.128  0.00  0.00    -0.286 OA
ATOM      7  C   UNL d   1       8.476 -11.845 -26.544  0.00  0.00     0.103 C 
ENDBRANCH   1   5
TORSDOF 2
ENDMDL
MODEL 4
REMARK VINA RESULT:      -3.8      1.458      2.035
REMARK  2 active torsions:
REMARK  status: ('A' for Active; 'I' for Inactive)
REMARK    1  A    between atoms: C_1  and  O_3 
REMARK    2  A    between atoms: C_1  and  C_4 
ROOT
ATOM      1  C   UNL d   1       6.652 -11.265 -27.844  0.00  0.00     0.213 C 
ATOM      2  O   UNL d   1       7.707 -10.734 -28.132  0.00  0.00    -0.644 OA
ENDROOT
BRANCH   1   3
ATOM      3  O   UNL d   1       5.817 -11.757 -28.764  0.00  0.00    -0.771 OA
ATOM      4  H   UNL d   1       5.359 -10.982 -29.144  0.00  0.00     0.168 HD
ENDBRANCH   1   3
BRANCH   1   5
ATOM      5  C   UNL d   1       6.150 -11.436 -26.402  0.00  0.00     0.218 C 
ATOM      6  O   UNL d   1       5.217 -12.183 -26.136  0.00  0.00    -0.286 OA
ATOM      7  C   UNL d   1       6.881 -10.630 -25.368  0.00  0.00     0.103 C 
ENDBRANCH   1   5
TORSDOF 2
ENDMDL
MODEL 5
REMARK VINA RESULT:      -3.8      1.964      2.055
REMARK  2 active torsions:
REMARK  status: ('A' for Active; 'I' for Inactive)
REMARK    1  A    between atoms: C_1  and  O_3 
REMARK    2  A    between atoms: C_1  and  C_4 
ROOT
ATOM      1  C   UNL d   1       7.512  -9.758 -27.368  0.00  0.00     0.213 C 
ATOM      2  O   UNL d   1       8.289  -9.176 -26.636  0.00  0.00    -0.644 OA
ENDROOT
BRANCH   1   3
ATOM      3  O   UNL d   1       7.909 -10.654 -28.275  0.00  0.00    -0.771 OA
ATOM      4  H   UNL d   1       8.884 -10.591 -28.298  0.00  0.00     0.168 HD
ENDBRANCH   1   3
BRANCH   1   5
ATOM      5  C   UNL d   1       5.991  -9.538 -27.344  0.00  0.00     0.218 C 
ATOM      6  O   UNL d   1       5.234 -10.251 -27.990  0.00  0.00    -0.286 OA
ATOM      7  C   UNL d   1       5.520  -8.404 -26.481  0.00  0.00     0.103 C 
ENDBRANCH   1   5
TORSDOF 2
ENDMDL
MODEL 6
REMARK VINA RESULT:      -3.8      3.062      4.220
REMARK  2 active torsions:
REMARK  status: ('A' for Active; 'I' for Inactive)
REMARK    1  A    between atoms: C_1  and  O_3 
REMARK    2  A    between atoms: C_1  and  C_4 
ROOT
ATOM      1  C   UNL d   1       8.819 -10.764 -25.407  0.00  0.00     0.213 C 
ATOM      2  O   UNL d   1       9.233 -11.310 -26.411  0.00  0.00    -0.644 OA
ENDROOT
BRANCH   1   3
ATOM      3  O   UNL d   1       7.820 -11.263 -24.674  0.00  0.00    -0.771 OA
ATOM      4  H   UNL d   1       7.036 -11.258 -25.259  0.00  0.00     0.168 HD
ENDBRANCH   1   3
BRANCH   1   5
ATOM      5  C   UNL d   1       9.385  -9.445 -24.859  0.00  0.00     0.218 C 
ATOM      6  O   UNL d   1      10.233  -8.812 -25.475  0.00  0.00    -0.286 OA
ATOM      7  C   UNL d   1       8.827  -9.005 -23.537  0.00  0.00     0.103 C 
ENDBRANCH   1   5
TORSDOF 2
ENDMDL
MODEL 7
REMARK VINA RESULT:      -3.8      3.175      4.065
REMARK  2 active torsions:
REMARK  status: ('A' for Active; 'I' for Inactive)
REMARK    1  A    between atoms: C_1  and  O_3 
REMARK    2  A    between atoms: C_1  and  C_4 
ROOT
ATOM      1  C   UNL d   1       6.243 -11.608 -24.731  0.00  0.00     0.213 C 
ATOM      2  O   UNL d   1       5.604 -12.633 -24.588  0.00  0.00    -0.644 OA
ENDROOT
BRANCH   1   3
ATOM      3  O   UNL d   1       5.701 -10.480 -25.199  0.00  0.00    -0.771 OA
ATOM      4  H   UNL d   1       5.249 -10.730 -26.029  0.00  0.00     0.168 HD
ENDBRANCH   1   3
BRANCH   1   5
ATOM      5  C   UNL d   1       7.736 -11.482 -24.395  0.00  0.00     0.218 C 
ATOM      6  O   UNL d   1       8.148 -11.647 -23.253  0.00  0.00    -0.286 OA
ATOM      7  C   UNL d   1       8.630 -11.148 -25.553  0.00  0.00     0.103 C 
ENDBRANCH   1   5
TORSDOF 2
ENDMDL
MODEL 8
REMARK VINA RESULT:      -3.7      1.025      2.207
REMARK  2 active torsions:
REMARK  status: ('A' for Active; 'I' for Inactive)
REMARK    1  A    between atoms: C_1  and  O_3 
REMARK    2  A    between atoms: C_1  and  C_4 
ROOT
ATOM      1  C   UNL d   1       6.986 -10.599 -27.854  0.00  0.00     0.213 C 
ATOM      2  O   UNL d   1       5.822 -10.699 -28.191  0.00  0.00    -0.644 OA
ENDROOT
BRANCH   1   3
ATOM      3  O   UNL d   1       7.713  -9.503 -28.087  0.00  0.00    -0.771 OA
ATOM      4  H   UNL d   1       8.642  -9.805 -28.119  0.00  0.00     0.168 HD
ENDBRANCH   1   3
BRANCH   1   5
ATOM      5  C   UNL d   1       7.759 -11.708 -27.124  0.00  0.00     0.218 C 
ATOM      6  O   UNL d   1       8.942 -11.578 -26.838  0.00  0.00    -0.286 OA
ATOM      7  C   UNL d   1       6.963 -12.938 -26.797  0.00  0.00     0.103 C 
ENDBRANCH   1   5
TORSDOF 2
ENDMDL
MODEL 9
REMARK VINA RESULT:      -3.7      2.994      3.775
REMARK  2 active torsions:
REMARK  status: ('A' for Active; 'I' for Inactive)
REMARK    1  A    between atoms: C_1  and  O_3 
REMARK    2  A    between atoms: C_1  and  C_4 
ROOT
ATOM      1  C   UNL d   1       6.803 -11.895 -24.224  0.00  0.00     0.213 C 
ATOM      2  O   UNL d   1       5.782 -12.555 -24.192  0.00  0.00    -0.644 OA
ENDROOT
BRANCH   1   3
ATOM      3  O   UNL d   1       7.571 -11.702 -23.149  0.00  0.00    -0.771 OA
ATOM      4  H   UNL d   1       7.052 -12.035 -22.391  0.00  0.00     0.168 HD
ENDBRANCH   1   3
BRANCH   1   5
ATOM      5  C   UNL d   1       7.333 -11.208 -25.492  0.00  0.00     0.218 C 
ATOM      6  O   UNL d   1       6.718 -10.293 -26.025  0.00  0.00    -0.286 OA
ATOM      7  C   UNL d   1       8.637 -11.737 -26.013  0.00  0.00     0.103 C 
ENDBRANCH   1   5
TORSDOF 2
ENDMDL
