@<TRIPOS>MOLECULE
PYR
 10 9 0 0 0
SMALL
GASTEIGER

@<TRIPOS>ATOM
      1 C           0.9224   -0.0495   -0.0522 C.2     1  UNL1        0.3723
      2 O           0.2754    0.6872    0.6666 O.2     1  UNL1       -0.2419
      3 O           0.3540   -0.9150   -0.8963 O.3     1  UNL1       -0.4751
      4 C           2.4581   -0.0785   -0.0804 C.2     1  UNL1        0.2360
      5 O           3.0673   -0.8377   -0.8227 O.2     1  UNL1       -0.2854
      6 C           3.1362    0.8782    0.8555 C.3     1  UNL1        0.0052
      7 H          -0.6104   -0.7990   -0.7830 H       1  UNL1        0.2955
      8 H           2.8570    1.9042    0.6033 H       1  UNL1        0.0311
      9 H           2.8569    0.6491    1.8869 H       1  UNL1        0.0311
     10 H           4.2208    0.7767    0.7562 H       1  UNL1        0.0311
@<TRIPOS>BOND
     1     1     2    2
     2     1     3    1
     3     1     4    1
     4     3     7    1
     5     4     5    2
     6     4     6    1
     7     6     8    1
     8     6     9    1
     9     6    10    1
