REMARK  2 active torsions:
REMARK  status: ('A' for Active; 'I' for Inactive)
REMARK    1  A    between atoms: C_1  and  O_3 
REMARK    2  A    between atoms: C_1  and  C_4 
ROOT
ATOM      1  C   UNL d   1       0.922  -0.050  -0.052  0.00  0.00     0.213 C 
ATOM      2  O   UNL d   1       0.275   0.687   0.667  0.00  0.00    -0.644 OA
ENDROOT
BRANCH   1   3
ATOM      3  O   UNL d   1       0.354  -0.915  -0.896  0.00  0.00    -0.771 OA
ATOM      4  H   UNL d   1      -0.610  -0.799  -0.783  0.00  0.00     0.168 HD
ENDBRANCH   1   3
BRANCH   1   5
ATOM      5  C   UNL d   1       2.458  -0.079  -0.080  0.00  0.00     0.218 C 
ATOM      6  O   UNL d   1       3.067  -0.838  -0.823  0.00  0.00    -0.286 OA
ATOM      7  C   UNL d   1       3.136   0.878   0.856  0.00  0.00     0.103 C 
ENDBRANCH   1   5
TORSDOF 2
