@<TRIPOS>MOLECULE
PYR
 10 9 0 0 0
SMALL
GASTEIGER

@<TRIPOS>ATOM
      1 C           1.0158   -0.0660   -0.0732 C.2     1  UNL1        0.3723
      2 O           0.3640   -0.4927   -1.0058 O.2     1  UNL1       -0.2419
      3 O           0.4530    0.4389    1.0300 O.3     1  UNL1       -0.4751
      4 C           2.5521   -0.0502   -0.0386 C.2     1  UNL1        0.2360
      5 O           3.1601    0.3905    0.9278 O.2     1  UNL1       -0.2854
      6 C           3.2348   -0.6045   -1.2543 C.3     1  UNL1        0.0052
      7 H          -0.5128    0.3750    0.8903 H       1  UNL1        0.2955
      8 H           2.9610   -1.6533   -1.3906 H       1  UNL1        0.0311
      9 H           2.9610   -0.0196   -2.1355 H       1  UNL1        0.0311
     10 H           4.3188   -0.5424   -1.1182 H       1  UNL1        0.0311
@<TRIPOS>BOND
     1     1     2    2
     2     1     3    1
     3     1     4    1
     4     3     7    1
     5     4     5    2
     6     4     6    1
     7     6     8    1
     8     6     9    1
     9     6    10    1
