REMARK  2 active torsions:
REMARK  status: ('A' for Active; 'I' for Inactive)
REMARK    1  A    between atoms: C_1  and  O_3 
REMARK    2  A    between atoms: C_1  and  C_4 
ROOT
ATOM      1  C   UNL d   1       1.016  -0.066  -0.073  0.00  0.00     0.213 C 
ATOM      2  O   UNL d   1       0.364  -0.493  -1.006  0.00  0.00    -0.644 OA
ENDROOT
BRANCH   1   3
ATOM      3  O   UNL d   1       0.453   0.439   1.030  0.00  0.00    -0.771 OA
ATOM      4  H   UNL d   1      -0.513   0.375   0.890  0.00  0.00     0.168 HD
ENDBRANCH   1   3
BRANCH   1   5
ATOM      5  C   UNL d   1       2.552  -0.050  -0.039  0.00  0.00     0.218 C 
ATOM      6  O   UNL d   1       3.160   0.391   0.928  0.00  0.00    -0.286 OA
ATOM      7  C   UNL d   1       3.235  -0.605  -1.254  0.00  0.00     0.103 C 
ENDBRANCH   1   5
TORSDOF 2
