MODEL 1
REMARK VINA RESULT:      -7.9      0.000      0.000
REMARK  10 active torsions:
REMARK  status: ('A' for Active; 'I' for Inactive)
REMARK    1  A    between atoms: O_4  and  C_21 
REMARK    2  A    between atoms: O_4  and  C_26 
REMARK    3  A    between atoms: O_5  and  C_22 
REMARK    4  A    between atoms: O_8  and  N_12 
REMARK    5  A    between atoms: CA_16  and  N_11 
REMARK       I    between atoms: N_11  and  C_23 
REMARK    6  A    between atoms: N_14  and  C_29 
REMARK    7  A    between atoms: CA_18  and  C_22 
REMARK    8  A    between atoms: C_19  and  C_21 
REMARK    9  A    between atoms: C_23  and  C_24 
REMARK   10  A    between atoms: C_24  and  C_25 
ROOT
ATOM      1  S   UNL d   1      39.836  -8.186  -3.912  0.00  0.00    -0.136 SA
ATOM      2  O   UNL d   1      37.278  -5.445  -2.149  0.00  0.00    -0.271 OA
ATOM      3  N   UNL d   1      38.621  -7.297  -1.718  0.00  0.00    -0.293 N 
ATOM      4  C   UNL d   1      38.544  -8.419  -2.652  0.00  0.00     0.187 C 
ATOM      5  CA  UNL d   1      37.098  -7.898  -2.980  0.00  0.00     0.211 C 
ATOM      6  C   UNL d   1      37.606  -6.592  -2.295  0.00  0.00     0.251 C 
ATOM      7  CA  UNL d   1      39.785  -6.867  -1.116  0.00  0.00     0.117 C 
ATOM      8  C   UNL d   1      41.006  -7.313  -1.537  0.00  0.00    -0.013 C 
ATOM      9  C   UNL d   1      41.195  -8.265  -2.698  0.00  0.00     0.115 C 
ENDROOT
BRANCH   5  10
ATOM     10  N   UNL d   1      36.624  -8.000  -4.406  0.00  0.00    -0.339 N 
ATOM     11  C   UNL d   1      35.286  -7.681  -4.632  0.00  0.00     0.275 C 
ATOM     12  O   UNL d   1      34.563  -7.358  -3.688  0.00  0.00    -0.266 OA
ATOM     13  H   UNL d   1      37.248  -8.091  -5.201  0.00  0.00     0.163 HD
BRANCH  11  14
ATOM     14  C   UNL d   1      34.655  -7.740  -6.027  0.00  0.00     0.180 C 
ATOM     15  N   UNL d   1      33.613  -8.401  -6.431  0.00  0.00    -0.126 NA
BRANCH  15  16
ATOM     16  O   UNL d   1      32.936  -9.172  -5.485  0.00  0.00    -0.261 OA
ATOM     17  C   UNL d   1      31.622  -9.407  -6.023  0.00  0.00     0.240 C 
ENDBRANCH  15  16
BRANCH  14  18
ATOM     18  C   UNL d   1      35.380  -7.056  -7.109  0.00  0.00     0.102 A 
ATOM     19  N   UNL d   1      35.331  -7.507  -8.422  0.00  0.00    -0.222 NA
ATOM     20  C   UNL d   1      35.925  -6.655  -9.218  0.00  0.00     0.164 A 
ATOM     21  S   UNL d   1      36.666  -5.313  -8.450  0.00  0.00    -0.062 SA
ATOM     22  C   UNL d   1      36.110  -5.890  -6.938  0.00  0.00     0.087 A 
BRANCH  20  23
ATOM     23  N   UNL d   1      35.963  -6.807 -10.550  0.00  0.00    -0.378 N 
ATOM     24  H   UNL d   1      36.215  -7.707 -10.937  0.00  0.00     0.158 HD
ATOM     25  H   UNL d   1      35.284  -6.276 -11.080  0.00  0.00     0.158 HD
ENDBRANCH  20  23
ENDBRANCH  14  18
ENDBRANCH  11  14
ENDBRANCH   5  10
BRANCH   7  26
ATOM     26  C   UNL d   1      39.664  -5.993   0.122  0.00  0.00     0.194 C 
ATOM     27  OXT UNL d   1      39.960  -4.805   0.134  0.00  0.00    -0.645 OA
BRANCH  26  28
ATOM     28  O   UNL d   1      39.355  -6.646   1.253  0.00  0.00    -0.772 OA
ATOM     29  H   UNL d   1      39.802  -7.510   1.378  0.00  0.00     0.167 HD
ENDBRANCH  26  28
ENDBRANCH   7  26
BRANCH   8  30
ATOM     30  C   UNL d   1      42.326  -6.850  -0.939  0.00  0.00     0.216 C 
BRANCH  30  31
ATOM     31  O   UNL d   1      43.428  -7.373  -1.697  0.00  0.00    -0.317 OA
BRANCH  31  32
ATOM     32  C   UNL d   1      44.265  -8.216  -1.040  0.00  0.00     0.255 C 
ATOM     33  O   UNL d   1      44.631  -9.311  -1.441  0.00  0.00    -0.266 OA
ATOM     34  C   UNL d   1      44.699  -7.602   0.256  0.00  0.00     0.126 C 
ENDBRANCH  31  32
ENDBRANCH  30  31
ENDBRANCH   8  30
TORSDOF 10
ENDMDL
MODEL 2
REMARK VINA RESULT:      -7.8     14.730     18.870
REMARK  10 active torsions:
REMARK  status: ('A' for Active; 'I' for Inactive)
REMARK    1  A    between atoms: O_4  and  C_21 
REMARK    2  A    between atoms: O_4  and  C_26 
REMARK    3  A    between atoms: O_5  and  C_22 
REMARK    4  A    between atoms: O_8  and  N_12 
REMARK    5  A    between atoms: CA_16  and  N_11 
REMARK       I    between atoms: N_11  and  C_23 
REMARK    6  A    between atoms: N_14  and  C_29 
REMARK    7  A    between atoms: CA_18  and  C_22 
REMARK    8  A    between atoms: C_19  and  C_21 
REMARK    9  A    between atoms: C_23  and  C_24 
REMARK   10  A    between atoms: C_24  and  C_25 
ROOT
ATOM      1  S   UNL d   1      36.682 -11.931  11.911  0.00  0.00    -0.136 SA
ATOM      2  O   UNL d   1      37.575  -8.169  13.399  0.00  0.00    -0.271 OA
ATOM      3  N   UNL d   1      37.995  -9.632  11.639  0.00  0.00    -0.293 N 
ATOM      4  C   UNL d   1      38.262 -11.030  11.972  0.00  0.00     0.187 C 
ATOM      5  CA  UNL d   1      38.744 -10.487  13.366  0.00  0.00     0.211 C 
ATOM      6  C   UNL d   1      37.968  -9.205  12.934  0.00  0.00     0.251 C 
ATOM      7  CA  UNL d   1      37.269  -9.222  10.541  0.00  0.00     0.117 C 
ATOM      8  C   UNL d   1      36.534 -10.109   9.806  0.00  0.00    -0.013 C 
ATOM      9  C   UNL d   1      36.419 -11.580  10.141  0.00  0.00     0.115 C 
ENDROOT
BRANCH   5  10
ATOM     10  N   UNL d   1      38.435 -11.316  14.585  0.00  0.00    -0.339 N 
ATOM     11  C   UNL d   1      39.393 -12.264  14.941  0.00  0.00     0.275 C 
ATOM     12  O   UNL d   1      40.410 -12.396  14.258  0.00  0.00    -0.266 OA
ATOM     13  H   UNL d   1      37.695 -11.094  15.244  0.00  0.00     0.163 HD
BRANCH  11  14
ATOM     14  C   UNL d   1      39.221 -13.185  16.153  0.00  0.00     0.180 C 
ATOM     15  N   UNL d   1      39.701 -13.063  17.354  0.00  0.00    -0.126 NA
BRANCH  15  16
ATOM     16  O   UNL d   1      40.482 -11.937  17.620  0.00  0.00    -0.261 OA
ATOM     17  C   UNL d   1      41.851 -12.352  17.460  0.00  0.00     0.240 C 
ENDBRANCH  15  16
BRANCH  14  18
ATOM     18  C   UNL d   1      38.517 -14.455  15.923  0.00  0.00     0.102 A 
ATOM     19  N   UNL d   1      38.567 -15.498  16.840  0.00  0.00    -0.222 NA
ATOM     20  C   UNL d   1      37.747 -16.454  16.488  0.00  0.00     0.164 A 
ATOM     21  S   UNL d   1      36.936 -16.224  14.995  0.00  0.00    -0.062 SA
ATOM     22  C   UNL d   1      37.705 -14.705  14.827  0.00  0.00     0.087 A 
BRANCH  20  23
ATOM     23  N   UNL d   1      37.543 -17.550  17.233  0.00  0.00    -0.378 N 
ATOM     24  H   UNL d   1      37.078 -17.460  18.127  0.00  0.00     0.158 HD
ATOM     25  H   UNL d   1      37.358 -18.407  16.727  0.00  0.00     0.158 HD
ENDBRANCH  20  23
ENDBRANCH  14  18
ENDBRANCH  11  14
ENDBRANCH   5  10
BRANCH   7  26
ATOM     26  C   UNL d   1      37.421  -7.779  10.086  0.00  0.00     0.194 C 
ATOM     27  OXT UNL d   1      38.331  -7.397   9.363  0.00  0.00    -0.645 OA
BRANCH  26  28
ATOM     28  O   UNL d   1      36.571  -6.910  10.657  0.00  0.00    -0.772 OA
ATOM     29  H   UNL d   1      35.646  -6.950  10.335  0.00  0.00     0.167 HD
ENDBRANCH  26  28
ENDBRANCH   7  26
BRANCH   8  30
ATOM     30  C   UNL d   1      35.683  -9.713   8.608  0.00  0.00     0.216 C 
BRANCH  30  31
ATOM     31  O   UNL d   1      36.514  -9.492   7.458  0.00  0.00    -0.317 OA
BRANCH  31  32
ATOM     32  C   UNL d   1      35.870  -9.245   6.288  0.00  0.00     0.255 C 
ATOM     33  O   UNL d   1      34.975  -9.926   5.811  0.00  0.00    -0.266 OA
ATOM     34  C   UNL d   1      36.403  -7.991   5.663  0.00  0.00     0.126 C 
ENDBRANCH  31  32
ENDBRANCH  30  31
ENDBRANCH   8  30
TORSDOF 10
ENDMDL
MODEL 3
REMARK VINA RESULT:      -7.8     15.567     18.464
REMARK  10 active torsions:
REMARK  status: ('A' for Active; 'I' for Inactive)
REMARK    1  A    between atoms: O_4  and  C_21 
REMARK    2  A    between atoms: O_4  and  C_26 
REMARK    3  A    between atoms: O_5  and  C_22 
REMARK    4  A    between atoms: O_8  and  N_12 
REMARK    5  A    between atoms: CA_16  and  N_11 
REMARK       I    between atoms: N_11  and  C_23 
REMARK    6  A    between atoms: N_14  and  C_29 
REMARK    7  A    between atoms: CA_18  and  C_22 
REMARK    8  A    between atoms: C_19  and  C_21 
REMARK    9  A    between atoms: C_23  and  C_24 
REMARK   10  A    between atoms: C_24  and  C_25 
ROOT
ATOM      1  S   UNL d   1      41.098 -12.455  13.438  0.00  0.00    -0.136 SA
ATOM      2  O   UNL d   1      37.657 -12.355  15.744  0.00  0.00    -0.271 OA
ATOM      3  N   UNL d   1      39.482 -13.678  15.163  0.00  0.00    -0.293 N 
ATOM      4  C   UNL d   1      39.848 -13.741  13.750  0.00  0.00     0.187 C 
ATOM      5  CA  UNL d   1      38.344 -13.387  13.462  0.00  0.00     0.211 C 
ATOM      6  C   UNL d   1      38.346 -12.951  14.960  0.00  0.00     0.251 C 
ATOM      7  CA  UNL d   1      40.391 -13.654  16.200  0.00  0.00     0.117 C 
ATOM      8  C   UNL d   1      41.722 -13.443  15.969  0.00  0.00    -0.013 C 
ATOM      9  C   UNL d   1      42.303 -13.185  14.596  0.00  0.00     0.115 C 
ENDROOT
BRANCH   5  10
ATOM     10  N   UNL d   1      38.049 -12.479  12.297  0.00  0.00    -0.339 N 
ATOM     11  C   UNL d   1      36.702 -12.294  11.990  0.00  0.00     0.275 C 
ATOM     12  O   UNL d   1      35.836 -12.873  12.647  0.00  0.00    -0.266 OA
ATOM     13  H   UNL d   1      38.738 -11.868  11.871  0.00  0.00     0.163 HD
BRANCH  11  14
ATOM     14  C   UNL d   1      36.242 -11.403  10.831  0.00  0.00     0.180 C 
ATOM     15  N   UNL d   1      35.493 -11.700   9.812  0.00  0.00    -0.126 NA
BRANCH  15  16
ATOM     16  O   UNL d   1      35.009 -13.006   9.732  0.00  0.00    -0.261 OA
ATOM     17  C   UNL d   1      35.881 -13.702   8.822  0.00  0.00     0.240 C 
ENDBRANCH  15  16
BRANCH  14  18
ATOM     18  C   UNL d   1      36.811 -10.048  10.774  0.00  0.00     0.102 A 
ATOM     19  N   UNL d   1      37.503  -9.497  11.846  0.00  0.00    -0.222 NA
ATOM     20  C   UNL d   1      38.037  -8.354  11.503  0.00  0.00     0.164 A 
ATOM     21  S   UNL d   1      37.672  -7.808   9.920  0.00  0.00    -0.062 SA
ATOM     22  C   UNL d   1      36.766  -9.234   9.652  0.00  0.00     0.087 A 
BRANCH  20  23
ATOM     23  N   UNL d   1      38.820  -7.641  12.326  0.00  0.00    -0.378 N 
ATOM     24  H   UNL d   1      39.534  -8.114  12.863  0.00  0.00     0.158 HD
ATOM     25  H   UNL d   1      39.051  -6.702  12.022  0.00  0.00     0.158 HD
ENDBRANCH  20  23
ENDBRANCH  14  18
ENDBRANCH  11  14
ENDBRANCH   5  10
BRANCH   7  26
ATOM     26  C   UNL d   1      39.894 -14.009  17.591  0.00  0.00     0.194 C 
ATOM     27  OXT UNL d   1      39.850 -15.156  18.016  0.00  0.00    -0.645 OA
BRANCH  26  28
ATOM     28  O   UNL d   1      39.355 -12.990  18.281  0.00  0.00    -0.772 OA
ATOM     29  H   UNL d   1      38.684 -13.241  18.950  0.00  0.00     0.167 HD
ENDBRANCH  26  28
ENDBRANCH   7  26
BRANCH   8  30
ATOM     30  C   UNL d   1      42.768 -13.369  17.071  0.00  0.00     0.216 C 
BRANCH  30  31
ATOM     31  O   UNL d   1      42.888 -12.022  17.556  0.00  0.00    -0.317 OA
BRANCH  31  32
ATOM     32  C   UNL d   1      44.122 -11.461  17.475  0.00  0.00     0.255 C 
ATOM     33  O   UNL d   1      44.771 -11.314  16.451  0.00  0.00    -0.266 OA
ATOM     34  C   UNL d   1      44.577 -11.023  18.835  0.00  0.00     0.126 C 
ENDBRANCH  31  32
ENDBRANCH  30  31
ENDBRANCH   8  30
TORSDOF 10
ENDMDL
MODEL 4
REMARK VINA RESULT:      -7.5     14.641     17.361
REMARK  10 active torsions:
REMARK  status: ('A' for Active; 'I' for Inactive)
REMARK    1  A    between atoms: O_4  and  C_21 
REMARK    2  A    between atoms: O_4  and  C_26 
REMARK    3  A    between atoms: O_5  and  C_22 
REMARK    4  A    between atoms: O_8  and  N_12 
REMARK    5  A    between atoms: CA_16  and  N_11 
REMARK       I    between atoms: N_11  and  C_23 
REMARK    6  A    between atoms: N_14  and  C_29 
REMARK    7  A    between atoms: CA_18  and  C_22 
REMARK    8  A    between atoms: C_19  and  C_21 
REMARK    9  A    between atoms: C_23  and  C_24 
REMARK   10  A    between atoms: C_24  and  C_25 
ROOT
ATOM      1  S   UNL d   1      37.122 -14.119  12.993  0.00  0.00    -0.136 SA
ATOM      2  O   UNL d   1      40.845 -12.305  13.106  0.00  0.00    -0.271 OA
ATOM      3  N   UNL d   1      38.965 -12.799  14.386  0.00  0.00    -0.293 N 
ATOM      4  C   UNL d   1      37.655 -12.567  13.781  0.00  0.00     0.187 C 
ATOM      5  CA  UNL d   1      38.385 -11.503  12.883  0.00  0.00     0.211 C 
ATOM      6  C   UNL d   1      39.671 -12.248  13.358  0.00  0.00     0.251 C 
ATOM      7  CA  UNL d   1      39.260 -13.864  15.211  0.00  0.00     0.117 C 
ATOM      8  C   UNL d   1      38.407 -14.924  15.332  0.00  0.00    -0.013 C 
ATOM      9  C   UNL d   1      37.109 -15.045  14.564  0.00  0.00     0.115 C 
ENDROOT
BRANCH   5  10
ATOM     10  N   UNL d   1      37.940 -11.371  11.451  0.00  0.00    -0.339 N 
ATOM     11  C   UNL d   1      37.226 -10.216  11.135  0.00  0.00     0.275 C 
ATOM     12  O   UNL d   1      36.979  -9.387  12.012  0.00  0.00    -0.266 OA
ATOM     13  H   UNL d   1      38.288 -11.955  10.697  0.00  0.00     0.163 HD
BRANCH  11  14
ATOM     14  C   UNL d   1      36.702  -9.940   9.722  0.00  0.00     0.180 C 
ATOM     15  N   UNL d   1      35.875 -10.636   9.000  0.00  0.00    -0.126 NA
BRANCH  15  16
ATOM     16  O   UNL d   1      35.359 -11.804   9.563  0.00  0.00    -0.261 OA
ATOM     17  C   UNL d   1      36.065 -12.894   8.943  0.00  0.00     0.240 C 
ENDBRANCH  15  16
BRANCH  14  18
ATOM     18  C   UNL d   1      37.292  -8.797   9.010  0.00  0.00     0.102 A 
ATOM     19  N   UNL d   1      37.241  -8.689   7.626  0.00  0.00    -0.222 NA
ATOM     20  C   UNL d   1      37.694  -7.524   7.242  0.00  0.00     0.164 A 
ATOM     21  S   UNL d   1      38.302  -6.517   8.490  0.00  0.00    -0.062 SA
ATOM     22  C   UNL d   1      37.885  -7.713   9.640  0.00  0.00     0.087 A 
BRANCH  20  23
ATOM     23  N   UNL d   1      37.693  -7.127   5.962  0.00  0.00    -0.378 N 
ATOM     24  H   UNL d   1      37.397  -7.775   5.244  0.00  0.00     0.158 HD
ATOM     25  H   UNL d   1      37.465  -6.154   5.795  0.00  0.00     0.158 HD
ENDBRANCH  20  23
ENDBRANCH  14  18
ENDBRANCH  11  14
ENDBRANCH   5  10
BRANCH   7  26
ATOM     26  C   UNL d   1      40.496 -13.761  16.091  0.00  0.00     0.194 C 
ATOM     27  OXT UNL d   1      40.495 -13.217  17.188  0.00  0.00    -0.645 OA
BRANCH  26  28
ATOM     28  O   UNL d   1      41.639 -14.172  15.519  0.00  0.00    -0.772 OA
ATOM     29  H   UNL d   1      42.217 -13.461  15.170  0.00  0.00     0.167 HD
ENDBRANCH  26  28
ENDBRANCH   7  26
BRANCH   8  30
ATOM     30  C   UNL d   1      38.692 -16.144  16.196  0.00  0.00     0.216 C 
BRANCH  30  31
ATOM     31  O   UNL d   1      39.184 -17.224  15.387  0.00  0.00    -0.317 OA
BRANCH  31  32
ATOM     32  C   UNL d   1      40.524 -17.443  15.425  0.00  0.00     0.255 C 
ATOM     33  O   UNL d   1      41.339 -17.007  14.626  0.00  0.00    -0.266 OA
ATOM     34  C   UNL d   1      40.872 -18.292  16.610  0.00  0.00     0.126 C 
ENDBRANCH  31  32
ENDBRANCH  30  31
ENDBRANCH   8  30
TORSDOF 10
ENDMDL
MODEL 5
REMARK VINA RESULT:      -7.5     15.753     19.748
REMARK  10 active torsions:
REMARK  status: ('A' for Active; 'I' for Inactive)
REMARK    1  A    between atoms: O_4  and  C_21 
REMARK    2  A    between atoms: O_4  and  C_26 
REMARK    3  A    between atoms: O_5  and  C_22 
REMARK    4  A    between atoms: O_8  and  N_12 
REMARK    5  A    between atoms: CA_16  and  N_11 
REMARK       I    between atoms: N_11  and  C_23 
REMARK    6  A    between atoms: N_14  and  C_29 
REMARK    7  A    between atoms: CA_18  and  C_22 
REMARK    8  A    between atoms: C_19  and  C_21 
REMARK    9  A    between atoms: C_23  and  C_24 
REMARK   10  A    between atoms: C_24  and  C_25 
ROOT
ATOM      1  S   UNL d   1      38.345 -10.801  13.494  0.00  0.00    -0.136 SA
ATOM      2  O   UNL d   1      37.622 -14.536  11.853  0.00  0.00    -0.271 OA
ATOM      3  N   UNL d   1      36.646 -12.474  12.314  0.00  0.00    -0.293 N 
ATOM      4  C   UNL d   1      36.892 -11.888  13.630  0.00  0.00     0.187 C 
ATOM      5  CA  UNL d   1      37.124 -13.365  14.117  0.00  0.00     0.211 C 
ATOM      6  C   UNL d   1      37.266 -13.656  12.591  0.00  0.00     0.251 C 
ATOM      7  CA  UNL d   1      36.574 -11.748  11.143  0.00  0.00     0.117 C 
ATOM      8  C   UNL d   1      36.972 -10.442  11.094  0.00  0.00    -0.013 C 
ATOM      9  C   UNL d   1      37.549  -9.698  12.279  0.00  0.00     0.115 C 
ENDROOT
BRANCH   5  10
ATOM     10  N   UNL d   1      38.197 -13.602  15.147  0.00  0.00    -0.339 N 
ATOM     11  C   UNL d   1      38.508 -14.935  15.412  0.00  0.00     0.275 C 
ATOM     12  O   UNL d   1      37.903 -15.835  14.830  0.00  0.00    -0.266 OA
ATOM     13  H   UNL d   1      38.814 -12.875  15.494  0.00  0.00     0.163 HD
BRANCH  11  14
ATOM     14  C   UNL d   1      39.574 -15.337  16.437  0.00  0.00     0.180 C 
ATOM     15  N   UNL d   1      39.431 -15.936  17.581  0.00  0.00    -0.126 NA
BRANCH  15  16
ATOM     16  O   UNL d   1      38.136 -16.289  17.962  0.00  0.00    -0.261 OA
ATOM     17  C   UNL d   1      38.077 -17.726  17.897  0.00  0.00     0.240 C 
ENDBRANCH  15  16
BRANCH  14  18
ATOM     18  C   UNL d   1      40.949 -14.889  16.170  0.00  0.00     0.102 A 
ATOM     19  N   UNL d   1      41.727 -14.286  17.151  0.00  0.00    -0.222 NA
ATOM     20  C   UNL d   1      42.951 -14.117  16.721  0.00  0.00     0.164 A 
ATOM     21  S   UNL d   1      43.236 -14.571  15.093  0.00  0.00    -0.062 SA
ATOM     22  C   UNL d   1      41.607 -15.078  14.964  0.00  0.00     0.087 A 
BRANCH  20  23
ATOM     23  N   UNL d   1      43.930 -13.620  17.490  0.00  0.00    -0.378 N 
ATOM     24  H   UNL d   1      44.768 -13.260  17.053  0.00  0.00     0.158 HD
ATOM     25  H   UNL d   1      43.638 -13.145  18.336  0.00  0.00     0.158 HD
ENDBRANCH  20  23
ENDBRANCH  14  18
ENDBRANCH  11  14
ENDBRANCH   5  10
BRANCH   7  26
ATOM     26  C   UNL d   1      35.909 -12.400   9.942  0.00  0.00     0.194 C 
ATOM     27  OXT UNL d   1      34.695 -12.453   9.794  0.00  0.00    -0.645 OA
BRANCH  26  28
ATOM     28  O   UNL d   1      36.740 -13.056   9.117  0.00  0.00    -0.772 OA
ATOM     29  H   UNL d   1      36.352 -13.340   8.262  0.00  0.00     0.167 HD
ENDBRANCH  26  28
ENDBRANCH   7  26
BRANCH   8  30
ATOM     30  C   UNL d   1      36.953  -9.600   9.828  0.00  0.00     0.216 C 
BRANCH  30  31
ATOM     31  O   UNL d   1      37.097  -8.208  10.151  0.00  0.00    -0.317 OA
BRANCH  31  32
ATOM     32  C   UNL d   1      38.074  -7.534   9.492  0.00  0.00     0.255 C 
ATOM     33  O   UNL d   1      39.030  -6.979  10.012  0.00  0.00    -0.266 OA
ATOM     34  C   UNL d   1      37.823  -7.581   8.015  0.00  0.00     0.126 C 
ENDBRANCH  31  32
ENDBRANCH  30  31
ENDBRANCH   8  30
TORSDOF 10
ENDMDL
MODEL 6
REMARK VINA RESULT:      -7.4      3.632      5.563
REMARK  10 active torsions:
REMARK  status: ('A' for Active; 'I' for Inactive)
REMARK    1  A    between atoms: O_4  and  C_21 
REMARK    2  A    between atoms: O_4  and  C_26 
REMARK    3  A    between atoms: O_5  and  C_22 
REMARK    4  A    between atoms: O_8  and  N_12 
REMARK    5  A    between atoms: CA_16  and  N_11 
REMARK       I    between atoms: N_11  and  C_23 
REMARK    6  A    between atoms: N_14  and  C_29 
REMARK    7  A    between atoms: CA_18  and  C_22 
REMARK    8  A    between atoms: C_19  and  C_21 
REMARK    9  A    between atoms: C_23  and  C_24 
REMARK   10  A    between atoms: C_24  and  C_25 
ROOT
ATOM      1  S   UNL d   1      36.692  -7.080  -4.989  0.00  0.00    -0.136 SA
ATOM      2  O   UNL d   1      38.709 -10.626  -5.715  0.00  0.00    -0.271 OA
ATOM      3  N   UNL d   1      38.880  -8.559  -4.658  0.00  0.00    -0.293 N 
ATOM      4  C   UNL d   1      38.439  -7.381  -5.402  0.00  0.00     0.187 C 
ATOM      5  CA  UNL d   1      38.752  -8.221  -6.694  0.00  0.00     0.211 C 
ATOM      6  C   UNL d   1      38.725  -9.423  -5.701  0.00  0.00     0.251 C 
ATOM      7  CA  UNL d   1      38.686  -8.738  -3.305  0.00  0.00     0.117 C 
ATOM      8  C   UNL d   1      37.846  -7.926  -2.596  0.00  0.00    -0.013 C 
ATOM      9  C   UNL d   1      37.040  -6.807  -3.219  0.00  0.00     0.115 C 
ENDROOT
BRANCH   5  10
ATOM     10  N   UNL d   1      37.835  -8.054  -7.877  0.00  0.00    -0.339 N 
ATOM     11  C   UNL d   1      38.358  -7.352  -8.962  0.00  0.00     0.275 C 
ATOM     12  O   UNL d   1      39.500  -6.895  -8.907  0.00  0.00    -0.266 OA
ATOM     13  H   UNL d   1      36.972  -8.572  -7.997  0.00  0.00     0.163 HD
BRANCH  11  14
ATOM     14  C   UNL d   1      37.547  -7.097 -10.237  0.00  0.00     0.180 C 
ATOM     15  N   UNL d   1      37.526  -6.047 -11.003  0.00  0.00    -0.126 NA
BRANCH  15  16
ATOM     16  O   UNL d   1      38.357  -4.982 -10.652  0.00  0.00    -0.261 OA
ATOM     17  C   UNL d   1      39.054  -4.604 -11.854  0.00  0.00     0.240 C 
ENDBRANCH  15  16
BRANCH  14  18
ATOM     18  C   UNL d   1      36.554  -8.118 -10.605  0.00  0.00     0.102 A 
ATOM     19  N   UNL d   1      36.931  -9.378 -11.053  0.00  0.00    -0.222 NA
ATOM     20  C   UNL d   1      35.883 -10.151 -11.170  0.00  0.00     0.164 A 
ATOM     21  S   UNL d   1      34.371  -9.407 -10.852  0.00  0.00    -0.062 SA
ATOM     22  C   UNL d   1      35.184  -7.947 -10.483  0.00  0.00     0.087 A 
BRANCH  20  23
ATOM     23  N   UNL d   1      35.966 -11.444 -11.517  0.00  0.00    -0.378 N 
ATOM     24  H   UNL d   1      36.841 -11.934 -11.388  0.00  0.00     0.158 HD
ATOM     25  H   UNL d   1      35.129 -11.998 -11.385  0.00  0.00     0.158 HD
ENDBRANCH  20  23
ENDBRANCH  14  18
ENDBRANCH  11  14
ENDBRANCH   5  10
BRANCH   7  26
ATOM     26  C   UNL d   1      39.541  -9.775  -2.595  0.00  0.00     0.194 C 
ATOM     27  OXT UNL d   1      40.664  -9.539  -2.167  0.00  0.00    -0.645 OA
BRANCH  26  28
ATOM     28  O   UNL d   1      39.046 -11.023  -2.601  0.00  0.00    -0.772 OA
ATOM     29  H   UNL d   1      38.073 -11.092  -2.497  0.00  0.00     0.167 HD
ENDBRANCH  26  28
ENDBRANCH   7  26
BRANCH   8  30
ATOM     30  C   UNL d   1      37.562  -8.095  -1.111  0.00  0.00     0.216 C 
BRANCH  30  31
ATOM     31  O   UNL d   1      36.936  -6.914  -0.585  0.00  0.00    -0.317 OA
BRANCH  31  32
ATOM     32  C   UNL d   1      37.483  -6.394   0.544  0.00  0.00     0.255 C 
ATOM     33  O   UNL d   1      36.934  -6.323   1.633  0.00  0.00    -0.266 OA
ATOM     34  C   UNL d   1      38.881  -5.929   0.270  0.00  0.00     0.126 C 
ENDBRANCH  31  32
ENDBRANCH  30  31
ENDBRANCH   8  30
TORSDOF 10
ENDMDL
MODEL 7
REMARK VINA RESULT:      -7.4      3.393      4.747
REMARK  10 active torsions:
REMARK  status: ('A' for Active; 'I' for Inactive)
REMARK    1  A    between atoms: O_4  and  C_21 
REMARK    2  A    between atoms: O_4  and  C_26 
REMARK    3  A    between atoms: O_5  and  C_22 
REMARK    4  A    between atoms: O_8  and  N_12 
REMARK    5  A    between atoms: CA_16  and  N_11 
REMARK       I    between atoms: N_11  and  C_23 
REMARK    6  A    between atoms: N_14  and  C_29 
REMARK    7  A    between atoms: CA_18  and  C_22 
REMARK    8  A    between atoms: C_19  and  C_21 
REMARK    9  A    between atoms: C_23  and  C_24 
REMARK   10  A    between atoms: C_24  and  C_25 
ROOT
ATOM      1  S   UNL d   1      38.204  -9.273  -3.626  0.00  0.00    -0.136 SA
ATOM      2  O   UNL d   1      41.989  -7.598  -3.437  0.00  0.00    -0.271 OA
ATOM      3  N   UNL d   1      39.784  -7.322  -2.744  0.00  0.00    -0.293 N 
ATOM      4  C   UNL d   1      38.732  -7.535  -3.737  0.00  0.00     0.187 C 
ATOM      5  CA  UNL d   1      39.824  -7.168  -4.806  0.00  0.00     0.211 C 
ATOM      6  C   UNL d   1      40.812  -7.448  -3.631  0.00  0.00     0.251 C 
ATOM      7  CA  UNL d   1      39.687  -7.693  -1.420  0.00  0.00     0.117 C 
ATOM      8  C   UNL d   1      38.685  -8.515  -0.986  0.00  0.00    -0.013 C 
ATOM      9  C   UNL d   1      37.636  -9.109  -1.900  0.00  0.00     0.115 C 
ENDROOT
BRANCH   5  10
ATOM     10  N   UNL d   1      39.801  -7.913  -6.115  0.00  0.00    -0.339 N 
ATOM     11  C   UNL d   1      38.928  -7.422  -7.084  0.00  0.00     0.275 C 
ATOM     12  O   UNL d   1      38.219  -6.445  -6.835  0.00  0.00    -0.266 OA
ATOM     13  H   UNL d   1      40.500  -8.597  -6.385  0.00  0.00     0.163 HD
BRANCH  11  14
ATOM     14  C   UNL d   1      38.788  -8.073  -8.464  0.00  0.00     0.180 C 
ATOM     15  N   UNL d   1      39.220  -9.227  -8.876  0.00  0.00    -0.126 NA
BRANCH  15  16
ATOM     16  O   UNL d   1      39.904 -10.022  -7.955  0.00  0.00    -0.261 OA
ATOM     17  C   UNL d   1      41.196 -10.285  -8.534  0.00  0.00     0.240 C 
ENDBRANCH  15  16
BRANCH  14  18
ATOM     18  C   UNL d   1      38.191  -7.250  -9.525  0.00  0.00     0.102 A 
ATOM     19  N   UNL d   1      38.894  -6.221 -10.139  0.00  0.00    -0.222 NA
ATOM     20  C   UNL d   1      38.212  -5.740 -11.146  0.00  0.00     0.164 A 
ATOM     21  S   UNL d   1      36.649  -6.408 -11.370  0.00  0.00    -0.062 SA
ATOM     22  C   UNL d   1      36.922  -7.457 -10.047  0.00  0.00     0.087 A 
BRANCH  20  23
ATOM     23  N   UNL d   1      38.688  -4.785 -11.958  0.00  0.00    -0.378 N 
ATOM     24  H   UNL d   1      38.266  -4.655 -12.868  0.00  0.00     0.158 HD
ATOM     25  H   UNL d   1      39.028  -3.944 -11.508  0.00  0.00     0.158 HD
ENDBRANCH  20  23
ENDBRANCH  14  18
ENDBRANCH  11  14
ENDBRANCH   5  10
BRANCH   7  26
ATOM     26  C   UNL d   1      40.645  -7.051  -0.429  0.00  0.00     0.194 C 
ATOM     27  OXT UNL d   1      41.771  -7.480  -0.212  0.00  0.00    -0.645 OA
BRANCH  26  28
ATOM     28  O   UNL d   1      40.120  -6.064   0.313  0.00  0.00    -0.772 OA
ATOM     29  H   UNL d   1      40.515  -5.177   0.178  0.00  0.00     0.167 HD
ENDBRANCH  26  28
ENDBRANCH   7  26
BRANCH   8  30
ATOM     30  C   UNL d   1      38.546  -8.990   0.452  0.00  0.00     0.216 C 
BRANCH  30  31
ATOM     31  O   UNL d   1      37.932  -7.971   1.258  0.00  0.00    -0.317 OA
BRANCH  31  32
ATOM     32  C   UNL d   1      38.246  -7.978   2.579  0.00  0.00     0.255 C 
ATOM     33  O   UNL d   1      39.250  -7.488   3.074  0.00  0.00    -0.266 OA
ATOM     34  C   UNL d   1      37.166  -8.662   3.360  0.00  0.00     0.126 C 
ENDBRANCH  31  32
ENDBRANCH  30  31
ENDBRANCH   8  30
TORSDOF 10
ENDMDL
MODEL 8
REMARK VINA RESULT:      -7.4      2.163      3.546
REMARK  10 active torsions:
REMARK  status: ('A' for Active; 'I' for Inactive)
REMARK    1  A    between atoms: O_4  and  C_21 
REMARK    2  A    between atoms: O_4  and  C_26 
REMARK    3  A    between atoms: O_5  and  C_22 
REMARK    4  A    between atoms: O_8  and  N_12 
REMARK    5  A    between atoms: CA_16  and  N_11 
REMARK       I    between atoms: N_11  and  C_23 
REMARK    6  A    between atoms: N_14  and  C_29 
REMARK    7  A    between atoms: CA_18  and  C_22 
REMARK    8  A    between atoms: C_19  and  C_21 
REMARK    9  A    between atoms: C_23  and  C_24 
REMARK   10  A    between atoms: C_24  and  C_25 
ROOT
ATOM      1  S   UNL d   1      36.769  -8.324  -2.356  0.00  0.00    -0.136 SA
ATOM      2  O   UNL d   1      40.432  -8.069  -4.274  0.00  0.00    -0.271 OA
ATOM      3  N   UNL d   1      39.064  -7.024  -2.708  0.00  0.00    -0.293 N 
ATOM      4  C   UNL d   1      37.647  -6.883  -3.036  0.00  0.00     0.187 C 
ATOM      5  CA  UNL d   1      38.106  -6.946  -4.539  0.00  0.00     0.211 C 
ATOM      6  C   UNL d   1      39.419  -7.524  -3.926  0.00  0.00     0.251 C 
ATOM      7  CA  UNL d   1      39.543  -7.305  -1.446  0.00  0.00     0.117 C 
ATOM      8  C   UNL d   1      38.707  -7.715  -0.446  0.00  0.00    -0.013 C 
ATOM      9  C   UNL d   1      37.221  -7.929  -0.633  0.00  0.00     0.115 C 
ENDROOT
BRANCH   5  10
ATOM     10  N   UNL d   1      37.214  -7.669  -5.513  0.00  0.00    -0.339 N 
ATOM     11  C   UNL d   1      36.196  -6.912  -6.091  0.00  0.00     0.275 C 
ATOM     12  O   UNL d   1      36.058  -5.728  -5.779  0.00  0.00    -0.266 OA
ATOM     13  H   UNL d   1      37.429  -8.581  -5.903  0.00  0.00     0.163 HD
BRANCH  11  14
ATOM     14  C   UNL d   1      35.206  -7.506  -7.098  0.00  0.00     0.180 C 
ATOM     15  N   UNL d   1      34.178  -8.272  -6.887  0.00  0.00    -0.126 NA
BRANCH  15  16
ATOM     16  O   UNL d   1      33.897  -8.617  -5.564  0.00  0.00    -0.261 OA
ATOM     17  C   UNL d   1      32.473  -8.816  -5.495  0.00  0.00     0.240 C 
ENDBRANCH  15  16
BRANCH  14  18
ATOM     18  C   UNL d   1      35.505  -7.294  -8.522  0.00  0.00     0.102 A 
ATOM     19  N   UNL d   1      34.849  -8.002  -9.522  0.00  0.00    -0.222 NA
ATOM     20  C   UNL d   1      35.174  -7.534 -10.699  0.00  0.00     0.164 A 
ATOM     21  S   UNL d   1      36.354  -6.291 -10.704  0.00  0.00    -0.062 SA
ATOM     22  C   UNL d   1      36.401  -6.348  -8.995  0.00  0.00     0.087 A 
BRANCH  20  23
ATOM     23  N   UNL d   1      34.632  -7.988 -11.838  0.00  0.00    -0.378 N 
ATOM     24  H   UNL d   1      35.211  -8.493 -12.495  0.00  0.00     0.158 HD
ATOM     25  H   UNL d   1      33.666  -8.289 -11.785  0.00  0.00     0.158 HD
ENDBRANCH  20  23
ENDBRANCH  14  18
ENDBRANCH  11  14
ENDBRANCH   5  10
BRANCH   7  26
ATOM     26  C   UNL d   1      41.007  -7.012  -1.159  0.00  0.00     0.194 C 
ATOM     27  OXT UNL d   1      41.403  -5.936  -0.730  0.00  0.00    -0.645 OA
BRANCH  26  28
ATOM     28  O   UNL d   1      41.867  -7.965  -1.554  0.00  0.00    -0.772 OA
ATOM     29  H   UNL d   1      42.018  -8.690  -0.911  0.00  0.00     0.167 HD
ENDBRANCH  26  28
ENDBRANCH   7  26
BRANCH   8  30
ATOM     30  C   UNL d   1      39.178  -8.075   0.955  0.00  0.00     0.216 C 
BRANCH  30  31
ATOM     31  O   UNL d   1      38.421  -7.351   1.938  0.00  0.00    -0.317 OA
BRANCH  31  32
ATOM     32  C   UNL d   1      38.408  -7.873   3.192  0.00  0.00     0.255 C 
ATOM     33  O   UNL d   1      39.290  -7.740   4.027  0.00  0.00    -0.266 OA
ATOM     34  C   UNL d   1      37.135  -8.630   3.419  0.00  0.00     0.126 C 
ENDBRANCH  31  32
ENDBRANCH  30  31
ENDBRANCH   8  30
TORSDOF 10
ENDMDL
MODEL 9
REMARK VINA RESULT:      -7.2     14.853     19.031
REMARK  10 active torsions:
REMARK  status: ('A' for Active; 'I' for Inactive)
REMARK    1  A    between atoms: O_4  and  C_21 
REMARK    2  A    between atoms: O_4  and  C_26 
REMARK    3  A    between atoms: O_5  and  C_22 
REMARK    4  A    between atoms: O_8  and  N_12 
REMARK    5  A    between atoms: CA_16  and  N_11 
REMARK       I    between atoms: N_11  and  C_23 
REMARK    6  A    between atoms: N_14  and  C_29 
REMARK    7  A    between atoms: CA_18  and  C_22 
REMARK    8  A    between atoms: C_19  and  C_21 
REMARK    9  A    between atoms: C_23  and  C_24 
REMARK   10  A    between atoms: C_24  and  C_25 
ROOT
ATOM      1  S   UNL d   1      36.975 -12.403  11.864  0.00  0.00    -0.136 SA
ATOM      2  O   UNL d   1      37.915  -9.027  14.075  0.00  0.00    -0.271 OA
ATOM      3  N   UNL d   1      38.245 -10.069  12.020  0.00  0.00    -0.293 N 
ATOM      4  C   UNL d   1      38.546 -11.499  12.028  0.00  0.00     0.187 C 
ATOM      5  CA  UNL d   1      39.105 -11.257  13.477  0.00  0.00     0.211 C 
ATOM      6  C   UNL d   1      38.291  -9.930  13.375  0.00  0.00     0.251 C 
ATOM      7  CA  UNL d   1      37.450  -9.450  11.079  0.00  0.00     0.117 C 
ATOM      8  C   UNL d   1      36.681 -10.175  10.213  0.00  0.00    -0.013 C 
ATOM      9  C   UNL d   1      36.603 -11.687  10.228  0.00  0.00     0.115 C 
ENDROOT
BRANCH   5  10
ATOM     10  N   UNL d   1      38.878 -12.335  14.504  0.00  0.00    -0.339 N 
ATOM     11  C   UNL d   1      40.003 -13.064  14.885  0.00  0.00     0.275 C 
ATOM     12  O   UNL d   1      41.097 -12.821  14.372  0.00  0.00    -0.266 OA
ATOM     13  H   UNL d   1      38.029 -12.420  15.053  0.00  0.00     0.163 HD
BRANCH  11  14
ATOM     14  C   UNL d   1      39.934 -14.195  15.916  0.00  0.00     0.180 C 
ATOM     15  N   UNL d   1      39.231 -14.273  17.007  0.00  0.00    -0.126 NA
BRANCH  15  16
ATOM     16  O   UNL d   1      38.400 -13.194  17.311  0.00  0.00    -0.261 OA
ATOM     17  C   UNL d   1      38.909 -12.627  18.532  0.00  0.00     0.240 C 
ENDBRANCH  15  16
BRANCH  14  18
ATOM     18  C   UNL d   1      40.872 -15.313  15.736  0.00  0.00     0.102 A 
ATOM     19  N   UNL d   1      40.934 -16.034  14.550  0.00  0.00    -0.222 NA
ATOM     20  C   UNL d   1      41.940 -16.870  14.577  0.00  0.00     0.164 A 
ATOM     21  S   UNL d   1      42.818 -16.927  16.048  0.00  0.00    -0.062 SA
ATOM     22  C   UNL d   1      41.805 -15.704  16.684  0.00  0.00     0.087 A 
BRANCH  20  23
ATOM     23  N   UNL d   1      42.274 -17.640  13.532  0.00  0.00    -0.378 N 
ATOM     24  H   UNL d   1      41.550 -17.963  12.904  0.00  0.00     0.158 HD
ATOM     25  H   UNL d   1      43.172 -17.449  13.104  0.00  0.00     0.158 HD
ENDBRANCH  20  23
ENDBRANCH  14  18
ENDBRANCH  11  14
ENDBRANCH   5  10
BRANCH   7  26
ATOM     26  C   UNL d   1      37.559  -7.940  10.938  0.00  0.00     0.194 C 
ATOM     27  OXT UNL d   1      38.367  -7.392  10.199  0.00  0.00    -0.645 OA
BRANCH  26  28
ATOM     28  O   UNL d   1      36.808  -7.232  11.797  0.00  0.00    -0.772 OA
ATOM     29  H   UNL d   1      36.810  -7.553  12.724  0.00  0.00     0.167 HD
ENDBRANCH  26  28
ENDBRANCH   7  26
BRANCH   8  30
ATOM     30  C   UNL d   1      35.756  -9.552   9.178  0.00  0.00     0.216 C 
BRANCH  30  31
ATOM     31  O   UNL d   1      35.784 -10.314   7.961  0.00  0.00    -0.317 OA
BRANCH  31  32
ATOM     32  C   UNL d   1      35.746  -9.603   6.804  0.00  0.00     0.255 C 
ATOM     33  O   UNL d   1      35.016  -9.831   5.852  0.00  0.00    -0.266 OA
ATOM     34  C   UNL d   1      36.727  -8.471   6.865  0.00  0.00     0.126 C 
ENDBRANCH  31  32
ENDBRANCH  30  31
ENDBRANCH   8  30
TORSDOF 10
ENDMDL
