MODEL 1
REMARK VINA RESULT:      -9.0      0.000      0.000
REMARK  12 active torsions:
REMARK  status: ('A' for Active; 'I' for Inactive)
REMARK    1  A    between atoms: O_3  and  C_31 
REMARK    2  A    between atoms: OE1_5  and  CD_32 
REMARK    3  A    between atoms: N_9  and  C_16 
REMARK    4  A    between atoms: N_9  and  C_20 
REMARK    5  A    between atoms: CA_21  and  N_12 
REMARK       I    between atoms: N_12  and  C17_30 
REMARK    6  A    between atoms: N_13  and  C_23 
REMARK    7  A    between atoms: C_14  and  C_16 
REMARK    8  A    between atoms: CA_21  and  CB_22 
REMARK    9  A    between atoms: CA_21  and  C_31 
REMARK   10  A    between atoms: CB_22  and  CG_29 
REMARK   11  A    between atoms: C_26  and  C17_30 
REMARK   12  A    between atoms: CG_29  and  CD_32 
ROOT
ATOM      1  C   UNL d   1      20.855  19.741   8.819  0.00  0.00     0.028 A 
ATOM      2  C   UNL d   1      21.452  20.275   9.970  0.00  0.00     0.030 A 
ATOM      3  C   UNL d   1      19.461  19.609   8.806  0.00  0.00     0.030 A 
ATOM      4  C   UNL d   1      19.300  20.522  11.046  0.00  0.00     0.032 A 
ATOM      5  C   UNL d   1      20.685  20.684  11.068  0.00  0.00     0.019 A 
ATOM      6  C   UNL d   1      18.685  20.000   9.902  0.00  0.00     0.019 A 
ENDROOT
BRANCH   1   7
ATOM      7  N   UNL d   1      21.579  19.214   7.753  0.00  0.00    -0.388 N 
ATOM      8  H   UNL d   1      21.096  18.453   7.271  0.00  0.00     0.159 HD
BRANCH   7   9
ATOM      9  C   UNL d   1      22.295  20.095   6.833  0.00  0.00     0.141 C 
BRANCH   9  10
ATOM     10  C   UNL d   1      21.344  21.073   6.132  0.00  0.00     0.096 C 
ATOM     11  N   UNL d   1      20.733  20.467   4.926  0.00  0.00    -0.278 NA
ATOM     12  C   UNL d   1      20.005  21.347   4.107  0.00  0.00     0.123 A 
ATOM     13  H   UNL d   1      20.214  19.599   5.069  0.00  0.00     0.128 HD
ATOM     14  C   UNL d   1      20.171  22.697   4.107  0.00  0.00     0.153 A 
ATOM     15  C   UNL d   1      18.916  20.799   3.250  0.00  0.00     0.272 A 
ATOM     16  N   UNL d   1      21.104  23.251   4.987  0.00  0.00    -0.371 N 
ATOM     17  N   UNL d   1      19.434  23.543   3.318  0.00  0.00    -0.201 NA
ATOM     18  C   UNL d   1      22.048  22.400   5.724  0.00  0.00     0.142 C 
ATOM     19  H   UNL d   1      21.459  24.132   4.628  0.00  0.00     0.161 HD
ATOM     20  C   UNL d   1      18.490  23.045   2.589  0.00  0.00     0.181 A 
ATOM     21  N   UNL d   1      18.226  21.714   2.519  0.00  0.00    -0.297 N 
ATOM     22  H   UNL d   1      17.449  21.370   1.984  0.00  0.00     0.171 HD
ATOM     23  O   UNL d   1      18.634  19.603   3.246  0.00  0.00    -0.266 OA
BRANCH  20  24
ATOM     24  N   UNL d   1      17.706  23.859   1.841  0.00  0.00    -0.272 NA
ATOM     25  H   UNL d   1      16.706  23.768   1.942  0.00  0.00     0.127 HD
ATOM     26  H   UNL d   1      18.014  23.907   0.875  0.00  0.00     0.127 HD
ENDBRANCH  20  24
ENDBRANCH   9  10
ENDBRANCH   7   9
ENDBRANCH   1   7
BRANCH   4  27
ATOM     27  C17 <1> d   1      18.456  20.810  12.233  0.00  0.00     0.252 C 
ATOM     28  O   UNL d   1      17.962  21.918  12.406  0.00  0.00    -0.268 OA
ATOM     29  N   UNL d   1      18.111  19.739  13.020  0.00  0.00    -0.343 N 
ATOM     30  H   UNL d   1      17.342  19.851  13.669  0.00  0.00     0.163 HD
BRANCH  29  31
ATOM     31  CA  UNL d   1      18.658  18.371  12.903  0.00  0.00     0.183 C 
BRANCH  31  32
ATOM     32  CB  UNL d   1      19.373  17.935  14.189  0.00  0.00     0.046 C 
BRANCH  32  33
ATOM     33  CG  UNL d   1      19.048  18.797  15.417  0.00  0.00     0.112 C 
BRANCH  33  34
ATOM     34  CD  UNL d   1      17.810  18.297  16.126  0.00  0.00     0.139 C 
ATOM     35  OE2 UNL d   1      16.704  18.228  15.619  0.00  0.00    -0.650 OA
BRANCH  34  36
ATOM     36  OE1 UNL d   1      18.031  17.975  17.421  0.00  0.00    -0.776 OA
ATOM     37  HE1 UNL d   1      17.288  18.180  18.021  0.00  0.00     0.167 HD
ENDBRANCH  34  36
ENDBRANCH  33  34
ENDBRANCH  32  33
ENDBRANCH  31  32
BRANCH  31  38
ATOM     38  C   UNL d   1      17.722  17.277  12.330  0.00  0.00     0.163 C 
ATOM     39  OXT UNL d   1      18.165  16.273  11.778  0.00  0.00    -0.648 OA
BRANCH  38  40
ATOM     40  O   UNL d   1      16.404  17.411  12.559  0.00  0.00    -0.775 OA
ATOM     41  H   UNL d   1      16.151  17.264  13.504  0.00  0.00     0.167 HD
ENDBRANCH  38  40
ENDBRANCH  31  38
ENDBRANCH  29  31
ENDBRANCH   4  27
TORSDOF 12
ENDMDL
MODEL 2
REMARK VINA RESULT:      -8.5      1.163      1.562
REMARK  12 active torsions:
REMARK  status: ('A' for Active; 'I' for Inactive)
REMARK    1  A    between atoms: O_3  and  C_31 
REMARK    2  A    between atoms: OE1_5  and  CD_32 
REMARK    3  A    between atoms: N_9  and  C_16 
REMARK    4  A    between atoms: N_9  and  C_20 
REMARK    5  A    between atoms: CA_21  and  N_12 
REMARK       I    between atoms: N_12  and  C17_30 
REMARK    6  A    between atoms: N_13  and  C_23 
REMARK    7  A    between atoms: C_14  and  C_16 
REMARK    8  A    between atoms: CA_21  and  CB_22 
REMARK    9  A    between atoms: CA_21  and  C_31 
REMARK   10  A    between atoms: CB_22  and  CG_29 
REMARK   11  A    between atoms: C_26  and  C17_30 
REMARK   12  A    between atoms: CG_29  and  CD_32 
ROOT
ATOM      1  C   UNL d   1      20.736  19.480   8.839  0.00  0.00     0.028 A 
ATOM      2  C   UNL d   1      19.339  19.588   8.835  0.00  0.00     0.030 A 
ATOM      3  C   UNL d   1      21.408  19.726  10.043  0.00  0.00     0.030 A 
ATOM      4  C   UNL d   1      19.315  20.177  11.180  0.00  0.00     0.032 A 
ATOM      5  C   UNL d   1      18.628  19.912   9.997  0.00  0.00     0.019 A 
ATOM      6  C   UNL d   1      20.710  20.065  11.207  0.00  0.00     0.019 A 
ENDROOT
BRANCH   1   7
ATOM      7  N   UNL d   1      21.495  19.277   7.689  0.00  0.00    -0.388 N 
ATOM      8  H   UNL d   1      21.034  18.680   6.999  0.00  0.00     0.159 HD
BRANCH   7   9
ATOM      9  C   UNL d   1      22.225  20.383   7.076  0.00  0.00     0.141 C 
BRANCH   9  10
ATOM     10  C   UNL d   1      21.291  21.309   6.286  0.00  0.00     0.096 C 
ATOM     11  N   UNL d   1      20.740  20.633   5.089  0.00  0.00    -0.278 NA
ATOM     12  C   UNL d   1      20.034  21.459   4.197  0.00  0.00     0.123 A 
ATOM     13  H   UNL d   1      20.227  19.765   5.255  0.00  0.00     0.128 HD
ATOM     14  C   UNL d   1      20.181  22.809   4.134  0.00  0.00     0.153 A 
ATOM     15  C   UNL d   1      18.990  20.850   3.325  0.00  0.00     0.272 A 
ATOM     16  N   UNL d   1      21.069  23.422   5.023  0.00  0.00    -0.371 N 
ATOM     17  N   UNL d   1      19.466  23.602   3.273  0.00  0.00    -0.201 NA
ATOM     18  C   UNL d   1      21.993  22.625   5.841  0.00  0.00     0.142 C 
ATOM     19  H   UNL d   1      21.426  24.289   4.633  0.00  0.00     0.161 HD
ATOM     20  C   UNL d   1      18.561  23.052   2.532  0.00  0.00     0.181 A 
ATOM     21  N   UNL d   1      18.319  21.715   2.520  0.00  0.00    -0.297 N 
ATOM     22  H   UNL d   1      17.570  21.332   1.972  0.00  0.00     0.171 HD
ATOM     23  O   UNL d   1      18.726  19.650   3.370  0.00  0.00    -0.266 OA
BRANCH  20  24
ATOM     24  N   UNL d   1      17.797  23.815   1.712  0.00  0.00    -0.272 NA
ATOM     25  H   UNL d   1      17.944  23.724   0.718  0.00  0.00     0.127 HD
ATOM     26  H   UNL d   1      17.740  24.778   2.029  0.00  0.00     0.127 HD
ENDBRANCH  20  24
ENDBRANCH   9  10
ENDBRANCH   7   9
ENDBRANCH   1   7
BRANCH   4  27
ATOM     27  C17 <1> d   1      18.622  20.659  12.402  0.00  0.00     0.252 C 
ATOM     28  O   UNL d   1      18.273  21.828  12.514  0.00  0.00    -0.268 OA
ATOM     29  N   UNL d   1      18.236  19.703  13.310  0.00  0.00    -0.343 N 
ATOM     30  H   UNL d   1      17.548  19.958  14.008  0.00  0.00     0.163 HD
BRANCH  29  31
ATOM     31  CA  UNL d   1      18.614  18.276  13.273  0.00  0.00     0.183 C 
BRANCH  31  32
ATOM     32  CB  UNL d   1      18.954  17.744  14.672  0.00  0.00     0.046 C 
BRANCH  32  33
ATOM     33  CG  UNL d   1      20.455  17.540  14.925  0.00  0.00     0.112 C 
BRANCH  33  34
ATOM     34  CD  UNL d   1      21.104  18.811  15.425  0.00  0.00     0.139 C 
ATOM     35  OE2 UNL d   1      21.081  19.877  14.835  0.00  0.00    -0.650 OA
BRANCH  34  36
ATOM     36  OE1 UNL d   1      21.775  18.645  16.587  0.00  0.00    -0.776 OA
ATOM     37  HE1 UNL d   1      21.922  19.469  17.091  0.00  0.00     0.167 HD
ENDBRANCH  34  36
ENDBRANCH  33  34
ENDBRANCH  32  33
ENDBRANCH  31  32
BRANCH  31  38
ATOM     38  C   UNL d   1      17.702  17.317  12.466  0.00  0.00     0.163 C 
ATOM     39  OXT UNL d   1      18.154  16.336  11.881  0.00  0.00    -0.648 OA
BRANCH  38  40
ATOM     40  O   UNL d   1      16.377  17.536  12.521  0.00  0.00    -0.775 OA
ATOM     41  H   UNL d   1      16.138  18.491  12.611  0.00  0.00     0.167 HD
ENDBRANCH  38  40
ENDBRANCH  31  38
ENDBRANCH  29  31
ENDBRANCH   4  27
TORSDOF 12
ENDMDL
MODEL 3
REMARK VINA RESULT:      -8.4      1.364      1.859
REMARK  12 active torsions:
REMARK  status: ('A' for Active; 'I' for Inactive)
REMARK    1  A    between atoms: O_3  and  C_31 
REMARK    2  A    between atoms: OE1_5  and  CD_32 
REMARK    3  A    between atoms: N_9  and  C_16 
REMARK    4  A    between atoms: N_9  and  C_20 
REMARK    5  A    between atoms: CA_21  and  N_12 
REMARK       I    between atoms: N_12  and  C17_30 
REMARK    6  A    between atoms: N_13  and  C_23 
REMARK    7  A    between atoms: C_14  and  C_16 
REMARK    8  A    between atoms: CA_21  and  CB_22 
REMARK    9  A    between atoms: CA_21  and  C_31 
REMARK   10  A    between atoms: CB_22  and  CG_29 
REMARK   11  A    between atoms: C_26  and  C17_30 
REMARK   12  A    between atoms: CG_29  and  CD_32 
ROOT
ATOM      1  C   UNL d   1      21.542  19.576   9.379  0.00  0.00     0.028 A 
ATOM      2  C   UNL d   1      20.212  19.268   9.062  0.00  0.00     0.030 A 
ATOM      3  C   UNL d   1      21.787  20.261  10.575  0.00  0.00     0.030 A 
ATOM      4  C   UNL d   1      19.419  20.316  11.091  0.00  0.00     0.032 A 
ATOM      5  C   UNL d   1      19.158  19.613   9.916  0.00  0.00     0.019 A 
ATOM      6  C   UNL d   1      20.741  20.624  11.431  0.00  0.00     0.019 A 
ENDROOT
BRANCH   1   7
ATOM      7  N   UNL d   1      22.609  19.359   8.511  0.00  0.00    -0.388 N 
ATOM      8  H   UNL d   1      22.352  18.832   7.674  0.00  0.00     0.159 HD
BRANCH   7   9
ATOM      9  C   UNL d   1      23.565  20.428   8.229  0.00  0.00     0.141 C 
BRANCH   9  10
ATOM     10  C   UNL d   1      22.947  21.521   7.347  0.00  0.00     0.096 C 
ATOM     11  N   UNL d   1      22.266  20.945   6.164  0.00  0.00    -0.278 NA
ATOM     12  C   UNL d   1      21.843  21.872   5.196  0.00  0.00     0.123 A 
ATOM     13  H   UNL d   1      21.529  20.263   6.353  0.00  0.00     0.128 HD
ATOM     14  C   UNL d   1      22.360  23.124   5.067  0.00  0.00     0.153 A 
ATOM     15  C   UNL d   1      20.698  21.518   4.311  0.00  0.00     0.272 A 
ATOM     16  N   UNL d   1      23.356  23.526   5.961  0.00  0.00    -0.371 N 
ATOM     17  N   UNL d   1      21.919  24.024   4.131  0.00  0.00    -0.201 NA
ATOM     18  C   UNL d   1      23.999  22.562   6.863  0.00  0.00     0.142 C 
ATOM     19  H   UNL d   1      23.951  24.235   5.542  0.00  0.00     0.161 HD
ATOM     20  C   UNL d   1      20.919  23.697   3.380  0.00  0.00     0.181 A 
ATOM     21  N   UNL d   1      20.316  22.480   3.429  0.00  0.00    -0.297 N 
ATOM     22  H   UNL d   1      19.508  22.282   2.869  0.00  0.00     0.171 HD
ATOM     23  O   UNL d   1      20.111  20.442   4.409  0.00  0.00    -0.266 OA
BRANCH  20  24
ATOM     24  N   UNL d   1      20.421  24.585   2.485  0.00  0.00    -0.272 NA
ATOM     25  H   UNL d   1      21.075  25.196   2.020  0.00  0.00     0.127 HD
ATOM     26  H   UNL d   1      19.597  25.062   2.837  0.00  0.00     0.127 HD
ENDBRANCH  20  24
ENDBRANCH   9  10
ENDBRANCH   7   9
ENDBRANCH   1   7
BRANCH   4  27
ATOM     27  C17 <1> d   1      18.330  20.826  11.962  0.00  0.00     0.252 C 
ATOM     28  O   UNL d   1      17.804  21.912  11.749  0.00  0.00    -0.268 OA
ATOM     29  N   UNL d   1      17.823  19.952  12.893  0.00  0.00    -0.343 N 
ATOM     30  H   UNL d   1      16.928  20.169  13.314  0.00  0.00     0.163 HD
BRANCH  29  31
ATOM     31  CA  UNL d   1      18.388  18.631  13.233  0.00  0.00     0.183 C 
BRANCH  31  32
ATOM     32  CB  UNL d   1      18.594  18.475  14.746  0.00  0.00     0.046 C 
BRANCH  32  33
ATOM     33  CG  UNL d   1      17.296  18.279  15.543  0.00  0.00     0.112 C 
BRANCH  33  34
ATOM     34  CD  UNL d   1      17.584  18.015  17.004  0.00  0.00     0.139 C 
ATOM     35  OE2 UNL d   1      16.736  17.966  17.877  0.00  0.00    -0.650 OA
BRANCH  34  36
ATOM     36  OE1 UNL d   1      18.904  17.887  17.271  0.00  0.00    -0.776 OA
ATOM     37  HE1 UNL d   1      19.200  18.351  18.078  0.00  0.00     0.167 HD
ENDBRANCH  34  36
ENDBRANCH  33  34
ENDBRANCH  32  33
ENDBRANCH  31  32
BRANCH  31  38
ATOM     38  C   UNL d   1      17.735  17.387  12.579  0.00  0.00     0.163 C 
ATOM     39  OXT UNL d   1      18.395  16.397  12.272  0.00  0.00    -0.648 OA
BRANCH  38  40
ATOM     40  O   UNL d   1      16.396  17.384  12.461  0.00  0.00    -0.775 OA
ATOM     41  H   UNL d   1      16.064  16.776  11.755  0.00  0.00     0.167 HD
ENDBRANCH  38  40
ENDBRANCH  31  38
ENDBRANCH  29  31
ENDBRANCH   4  27
TORSDOF 12
ENDMDL
MODEL 4
REMARK VINA RESULT:      -8.3      2.906      5.144
REMARK  12 active torsions:
REMARK  status: ('A' for Active; 'I' for Inactive)
REMARK    1  A    between atoms: O_3  and  C_31 
REMARK    2  A    between atoms: OE1_5  and  CD_32 
REMARK    3  A    between atoms: N_9  and  C_16 
REMARK    4  A    between atoms: N_9  and  C_20 
REMARK    5  A    between atoms: CA_21  and  N_12 
REMARK       I    between atoms: N_12  and  C17_30 
REMARK    6  A    between atoms: N_13  and  C_23 
REMARK    7  A    between atoms: C_14  and  C_16 
REMARK    8  A    between atoms: CA_21  and  CB_22 
REMARK    9  A    between atoms: CA_21  and  C_31 
REMARK   10  A    between atoms: CB_22  and  CG_29 
REMARK   11  A    between atoms: C_26  and  C17_30 
REMARK   12  A    between atoms: CG_29  and  CD_32 
ROOT
ATOM      1  C   UNL d   1      22.969  17.875  10.253  0.00  0.00     0.028 A 
ATOM      2  C   UNL d   1      21.988  17.217   9.500  0.00  0.00     0.030 A 
ATOM      3  C   UNL d   1      22.587  18.438  11.477  0.00  0.00     0.030 A 
ATOM      4  C   UNL d   1      20.302  17.691  11.167  0.00  0.00     0.032 A 
ATOM      5  C   UNL d   1      20.669  17.104   9.958  0.00  0.00     0.019 A 
ATOM      6  C   UNL d   1      21.270  18.344  11.939  0.00  0.00     0.019 A 
ENDROOT
BRANCH   1   7
ATOM      7  N   UNL d   1      24.260  18.116   9.790  0.00  0.00    -0.388 N 
ATOM      8  H   UNL d   1      24.413  17.800   8.829  0.00  0.00     0.159 HD
BRANCH   7   9
ATOM      9  C   UNL d   1      24.928  19.383  10.076  0.00  0.00     0.141 C 
BRANCH   9  10
ATOM     10  C   UNL d   1      24.320  20.538   9.270  0.00  0.00     0.096 C 
ATOM     11  N   UNL d   1      23.850  20.084   7.941  0.00  0.00    -0.278 NA
ATOM     12  C   UNL d   1      23.461  21.104   7.054  0.00  0.00     0.123 A 
ATOM     13  H   UNL d   1      23.165  19.326   7.937  0.00  0.00     0.128 HD
ATOM     14  C   UNL d   1      23.865  22.397   7.161  0.00  0.00     0.153 A 
ATOM     15  C   UNL d   1      22.474  20.789   5.983  0.00  0.00     0.272 A 
ATOM     16  N   UNL d   1      24.700  22.747   8.227  0.00  0.00    -0.371 N 
ATOM     17  N   UNL d   1      23.457  23.384   6.300  0.00  0.00    -0.201 NA
ATOM     18  C   UNL d   1      25.317  21.717   9.074  0.00  0.00     0.142 C 
ATOM     19  H   UNL d   1      25.270  23.552   7.989  0.00  0.00     0.161 HD
ATOM     20  C   UNL d   1      22.594  23.089   5.384  0.00  0.00     0.181 A 
ATOM     21  N   UNL d   1      22.112  21.833   5.192  0.00  0.00    -0.297 N 
ATOM     22  H   UNL d   1      21.402  21.653   4.506  0.00  0.00     0.171 HD
ATOM     23  O   UNL d   1      21.987  19.667   5.860  0.00  0.00    -0.266 OA
BRANCH  20  24
ATOM     24  N   UNL d   1      22.126  24.052   4.554  0.00  0.00    -0.272 NA
ATOM     25  H   UNL d   1      21.137  24.252   4.580  0.00  0.00     0.127 HD
ATOM     26  H   UNL d   1      22.499  23.962   3.614  0.00  0.00     0.127 HD
ENDBRANCH  20  24
ENDBRANCH   9  10
ENDBRANCH   7   9
ENDBRANCH   1   7
BRANCH   4  27
ATOM     27  C17 <1> d   1      18.892  17.720  11.632  0.00  0.00     0.252 C 
ATOM     28  O   UNL d   1      18.378  16.740  12.159  0.00  0.00    -0.268 OA
ATOM     29  N   UNL d   1      18.259  18.938  11.608  0.00  0.00    -0.343 N 
ATOM     30  H   UNL d   1      17.409  19.045  12.148  0.00  0.00     0.163 HD
BRANCH  29  31
ATOM     31  CA  UNL d   1      18.784  20.171  10.987  0.00  0.00     0.183 C 
BRANCH  31  32
ATOM     32  CB  UNL d   1      18.336  20.306   9.526  0.00  0.00     0.046 C 
BRANCH  32  33
ATOM     33  CG  UNL d   1      19.487  20.316   8.509  0.00  0.00     0.112 C 
BRANCH  33  34
ATOM     34  CD  UNL d   1      19.999  21.719   8.274  0.00  0.00     0.139 C 
ATOM     35  OE2 UNL d   1      19.663  22.430   7.343  0.00  0.00    -0.650 OA
BRANCH  34  36
ATOM     36  OE1 UNL d   1      20.925  22.107   9.180  0.00  0.00    -0.776 OA
ATOM     37  HE1 UNL d   1      20.697  21.897  10.107  0.00  0.00     0.167 HD
ENDBRANCH  34  36
ENDBRANCH  33  34
ENDBRANCH  32  33
ENDBRANCH  31  32
BRANCH  31  38
ATOM     38  C   UNL d   1      18.639  21.490  11.789  0.00  0.00     0.163 C 
ATOM     39  OXT UNL d   1      17.563  21.838  12.269  0.00  0.00    -0.648 OA
BRANCH  38  40
ATOM     40  O   UNL d   1      19.761  22.188  12.036  0.00  0.00    -0.775 OA
ATOM     41  H   UNL d   1      19.594  23.064  12.462  0.00  0.00     0.167 HD
ENDBRANCH  38  40
ENDBRANCH  31  38
ENDBRANCH  29  31
ENDBRANCH   4  27
TORSDOF 12
ENDMDL
MODEL 5
REMARK VINA RESULT:      -8.3      1.311      1.729
REMARK  12 active torsions:
REMARK  status: ('A' for Active; 'I' for Inactive)
REMARK    1  A    between atoms: O_3  and  C_31 
REMARK    2  A    between atoms: OE1_5  and  CD_32 
REMARK    3  A    between atoms: N_9  and  C_16 
REMARK    4  A    between atoms: N_9  and  C_20 
REMARK    5  A    between atoms: CA_21  and  N_12 
REMARK       I    between atoms: N_12  and  C17_30 
REMARK    6  A    between atoms: N_13  and  C_23 
REMARK    7  A    between atoms: C_14  and  C_16 
REMARK    8  A    between atoms: CA_21  and  CB_22 
REMARK    9  A    between atoms: CA_21  and  C_31 
REMARK   10  A    between atoms: CB_22  and  CG_29 
REMARK   11  A    between atoms: C_26  and  C17_30 
REMARK   12  A    between atoms: CG_29  and  CD_32 
ROOT
ATOM      1  C   UNL d   1      21.535  19.335   8.874  0.00  0.00     0.028 A 
ATOM      2  C   UNL d   1      20.928  20.479   9.411  0.00  0.00     0.030 A 
ATOM      3  C   UNL d   1      22.073  18.400   9.767  0.00  0.00     0.030 A 
ATOM      4  C   UNL d   1      21.404  19.750  11.667  0.00  0.00     0.032 A 
ATOM      5  C   UNL d   1      20.842  20.680  10.794  0.00  0.00     0.019 A 
ATOM      6  C   UNL d   1      22.005  18.596  11.151  0.00  0.00     0.019 A 
ENDROOT
BRANCH   1   7
ATOM      7  N   UNL d   1      21.749  19.146   7.512  0.00  0.00    -0.388 N 
ATOM      8  H   UNL d   1      20.941  18.755   7.023  0.00  0.00     0.159 HD
BRANCH   7   9
ATOM      9  C   UNL d   1      22.445  20.160   6.722  0.00  0.00     0.141 C 
BRANCH   9  10
ATOM     10  C   UNL d   1      21.461  21.129   6.053  0.00  0.00     0.096 C 
ATOM     11  N   UNL d   1      20.814  20.515   4.870  0.00  0.00    -0.278 NA
ATOM     12  C   UNL d   1      20.049  21.388   4.076  0.00  0.00     0.123 A 
ATOM     13  H   UNL d   1      20.307  19.643   5.032  0.00  0.00     0.128 HD
ATOM     14  C   UNL d   1      20.204  22.739   4.068  0.00  0.00     0.153 A 
ATOM     15  C   UNL d   1      18.936  20.829   3.258  0.00  0.00     0.272 A 
ATOM     16  N   UNL d   1      21.163  23.303   4.914  0.00  0.00    -0.371 N 
ATOM     17  N   UNL d   1      19.433  23.578   3.304  0.00  0.00    -0.201 NA
ATOM     18  C   UNL d   1      22.139  22.461   5.619  0.00  0.00     0.142 C 
ATOM     19  H   UNL d   1      21.497  24.186   4.542  0.00  0.00     0.161 HD
ATOM     20  C   UNL d   1      18.468  23.070   2.610  0.00  0.00     0.181 A 
ATOM     21  N   UNL d   1      18.213  21.737   2.550  0.00  0.00    -0.297 N 
ATOM     22  H   UNL d   1      17.421  21.385   2.044  0.00  0.00     0.171 HD
ATOM     23  O   UNL d   1      18.665  19.630   3.265  0.00  0.00    -0.266 OA
BRANCH  20  24
ATOM     24  N   UNL d   1      17.651  23.877   1.889  0.00  0.00    -0.272 NA
ATOM     25  H   UNL d   1      17.625  24.856   2.134  0.00  0.00     0.127 HD
ATOM     26  H   UNL d   1      16.732  23.467   1.752  0.00  0.00     0.127 HD
ENDBRANCH  20  24
ENDBRANCH   9  10
ENDBRANCH   7   9
ENDBRANCH   1   7
BRANCH   4  27
ATOM     27  C17 <1> d   1      21.462  19.981  13.132  0.00  0.00     0.252 C 
ATOM     28  O   UNL d   1      22.275  20.758  13.620  0.00  0.00    -0.268 OA
ATOM     29  N   UNL d   1      20.455  19.428  13.885  0.00  0.00    -0.343 N 
ATOM     30  H   UNL d   1      20.318  19.775  14.826  0.00  0.00     0.163 HD
BRANCH  29  31
ATOM     31  CA  UNL d   1      19.438  18.474  13.397  0.00  0.00     0.183 C 
BRANCH  31  32
ATOM     32  CB  UNL d   1      19.095  17.421  14.459  0.00  0.00     0.046 C 
BRANCH  32  33
ATOM     33  CG  UNL d   1      19.081  17.955  15.899  0.00  0.00     0.112 C 
BRANCH  33  34
ATOM     34  CD  UNL d   1      17.685  18.348  16.325  0.00  0.00     0.139 C 
ATOM     35  OE2 UNL d   1      16.688  18.208  15.639  0.00  0.00    -0.650 OA
BRANCH  34  36
ATOM     36  OE1 UNL d   1      17.645  18.933  17.544  0.00  0.00    -0.776 OA
ATOM     37  HE1 UNL d   1      17.448  19.889  17.528  0.00  0.00     0.167 HD
ENDBRANCH  34  36
ENDBRANCH  33  34
ENDBRANCH  32  33
ENDBRANCH  31  32
BRANCH  31  38
ATOM     38  C   UNL d   1      18.185  19.063  12.700  0.00  0.00     0.163 C 
ATOM     39  OXT UNL d   1      17.812  20.215  12.908  0.00  0.00    -0.648 OA
BRANCH  38  40
ATOM     40  O   UNL d   1      17.582  18.301  11.771  0.00  0.00    -0.775 OA
ATOM     41  H   UNL d   1      16.610  18.197  11.918  0.00  0.00     0.167 HD
ENDBRANCH  38  40
ENDBRANCH  31  38
ENDBRANCH  29  31
ENDBRANCH   4  27
TORSDOF 12
ENDMDL
MODEL 6
REMARK VINA RESULT:      -8.3      3.790      6.142
REMARK  12 active torsions:
REMARK  status: ('A' for Active; 'I' for Inactive)
REMARK    1  A    between atoms: O_3  and  C_31 
REMARK    2  A    between atoms: OE1_5  and  CD_32 
REMARK    3  A    between atoms: N_9  and  C_16 
REMARK    4  A    between atoms: N_9  and  C_20 
REMARK    5  A    between atoms: CA_21  and  N_12 
REMARK       I    between atoms: N_12  and  C17_30 
REMARK    6  A    between atoms: N_13  and  C_23 
REMARK    7  A    between atoms: C_14  and  C_16 
REMARK    8  A    between atoms: CA_21  and  CB_22 
REMARK    9  A    between atoms: CA_21  and  C_31 
REMARK   10  A    between atoms: CB_22  and  CG_29 
REMARK   11  A    between atoms: C_26  and  C17_30 
REMARK   12  A    between atoms: CG_29  and  CD_32 
ROOT
ATOM      1  C   UNL d   1      18.691  17.011  12.290  0.00  0.00     0.028 A 
ATOM      2  C   UNL d   1      19.347  16.810  13.512  0.00  0.00     0.030 A 
ATOM      3  C   UNL d   1      18.971  16.125  11.243  0.00  0.00     0.030 A 
ATOM      4  C   UNL d   1      20.527  14.891  12.634  0.00  0.00     0.032 A 
ATOM      5  C   UNL d   1      20.242  15.749  13.695  0.00  0.00     0.019 A 
ATOM      6  C   UNL d   1      19.874  15.069  11.409  0.00  0.00     0.019 A 
ENDROOT
BRANCH   1   7
ATOM      7  N   UNL d   1      17.885  18.115  12.023  0.00  0.00    -0.388 N 
ATOM      8  H   UNL d   1      16.999  18.105  12.532  0.00  0.00     0.159 HD
BRANCH   7   9
ATOM      9  C   UNL d   1      18.465  19.453  11.935  0.00  0.00     0.141 C 
BRANCH   9  10
ATOM     10  C   UNL d   1      18.790  19.835  10.485  0.00  0.00     0.096 C 
ATOM     11  N   UNL d   1      20.141  19.373  10.091  0.00  0.00    -0.278 NA
ATOM     12  C   UNL d   1      20.607  19.847   8.852  0.00  0.00     0.123 A 
ATOM     13  H   UNL d   1      20.323  18.372  10.183  0.00  0.00     0.128 HD
ATOM     14  C   UNL d   1      20.127  20.960   8.236  0.00  0.00     0.153 A 
ATOM     15  C   UNL d   1      21.619  19.044   8.109  0.00  0.00     0.272 A 
ATOM     16  N   UNL d   1      19.094  21.669   8.855  0.00  0.00    -0.371 N 
ATOM     17  N   UNL d   1      20.577  21.394   7.015  0.00  0.00    -0.201 NA
ATOM     18  C   UNL d   1      18.691  21.368  10.236  0.00  0.00     0.142 C 
ATOM     19  H   UNL d   1      19.113  22.646   8.581  0.00  0.00     0.161 HD
ATOM     20  C   UNL d   1      21.449  20.677   6.386  0.00  0.00     0.181 A 
ATOM     21  N   UNL d   1      21.990  19.541   6.899  0.00  0.00    -0.297 N 
ATOM     22  H   UNL d   1      22.623  18.981   6.358  0.00  0.00     0.171 HD
ATOM     23  O   UNL d   1      22.051  17.980   8.546  0.00  0.00    -0.266 OA
BRANCH  20  24
ATOM     24  N   UNL d   1      21.872  21.047   5.153  0.00  0.00    -0.272 NA
ATOM     25  H   UNL d   1      21.441  20.600   4.357  0.00  0.00     0.127 HD
ATOM     26  H   UNL d   1      22.885  21.094   5.093  0.00  0.00     0.127 HD
ENDBRANCH  20  24
ENDBRANCH   9  10
ENDBRANCH   7   9
ENDBRANCH   1   7
BRANCH   4  27
ATOM     27  C17 <1> d   1      21.568  13.837  12.732  0.00  0.00     0.252 C 
ATOM     28  O   UNL d   1      21.277  12.685  13.032  0.00  0.00    -0.268 OA
ATOM     29  N   UNL d   1      22.828  14.170  12.298  0.00  0.00    -0.343 N 
ATOM     30  H   UNL d   1      23.481  13.421  12.108  0.00  0.00     0.163 HD
BRANCH  29  31
ATOM     31  CA  UNL d   1      23.281  15.526  11.927  0.00  0.00     0.183 C 
BRANCH  31  32
ATOM     32  CB  UNL d   1      23.644  16.360  13.164  0.00  0.00     0.046 C 
BRANCH  32  33
ATOM     33  CG  UNL d   1      24.103  17.792  12.849  0.00  0.00     0.112 C 
BRANCH  33  34
ATOM     34  CD  UNL d   1      22.991  18.597  12.216  0.00  0.00     0.139 C 
ATOM     35  OE2 UNL d   1      21.902  18.793  12.728  0.00  0.00    -0.650 OA
BRANCH  34  36
ATOM     36  OE1 UNL d   1      23.297  19.047  10.978  0.00  0.00    -0.776 OA
ATOM     37  HE1 UNL d   1      22.820  18.597  10.254  0.00  0.00     0.167 HD
ENDBRANCH  34  36
ENDBRANCH  33  34
ENDBRANCH  32  33
ENDBRANCH  31  32
BRANCH  31  38
ATOM     38  C   UNL d   1      24.329  15.641  10.791  0.00  0.00     0.163 C 
ATOM     39  OXT UNL d   1      25.389  15.021  10.824  0.00  0.00    -0.648 OA
BRANCH  38  40
ATOM     40  O   UNL d   1      23.986  16.360   9.707  0.00  0.00    -0.775 OA
ATOM     41  H   UNL d   1      24.466  16.089   8.887  0.00  0.00     0.167 HD
ENDBRANCH  38  40
ENDBRANCH  31  38
ENDBRANCH  29  31
ENDBRANCH   4  27
TORSDOF 12
ENDMDL
MODEL 7
REMARK VINA RESULT:      -8.2      4.297      7.252
REMARK  12 active torsions:
REMARK  status: ('A' for Active; 'I' for Inactive)
REMARK    1  A    between atoms: O_3  and  C_31 
REMARK    2  A    between atoms: OE1_5  and  CD_32 
REMARK    3  A    between atoms: N_9  and  C_16 
REMARK    4  A    between atoms: N_9  and  C_20 
REMARK    5  A    between atoms: CA_21  and  N_12 
REMARK       I    between atoms: N_12  and  C17_30 
REMARK    6  A    between atoms: N_13  and  C_23 
REMARK    7  A    between atoms: C_14  and  C_16 
REMARK    8  A    between atoms: CA_21  and  CB_22 
REMARK    9  A    between atoms: CA_21  and  C_31 
REMARK   10  A    between atoms: CB_22  and  CG_29 
REMARK   11  A    between atoms: C_26  and  C17_30 
REMARK   12  A    between atoms: CG_29  and  CD_32 
ROOT
ATOM      1  C   UNL d   1      21.136  15.326  12.637  0.00  0.00     0.028 A 
ATOM      2  C   UNL d   1      20.316  15.268  11.502  0.00  0.00     0.030 A 
ATOM      3  C   UNL d   1      20.704  16.105  13.718  0.00  0.00     0.030 A 
ATOM      4  C   UNL d   1      18.690  16.738  12.524  0.00  0.00     0.032 A 
ATOM      5  C   UNL d   1      19.093  15.948  11.448  0.00  0.00     0.019 A 
ATOM      6  C   UNL d   1      19.491  16.800  13.671  0.00  0.00     0.019 A 
ENDROOT
BRANCH   1   7
ATOM      7  N   UNL d   1      22.410  14.766  12.695  0.00  0.00    -0.388 N 
ATOM      8  H   UNL d   1      22.672  14.265  11.843  0.00  0.00     0.159 HD
BRANCH   7   9
ATOM      9  C   UNL d   1      23.524  15.514  13.272  0.00  0.00     0.141 C 
BRANCH   9  10
ATOM     10  C   UNL d   1      24.118  16.510  12.267  0.00  0.00     0.096 C 
ATOM     11  N   UNL d   1      23.368  17.788  12.262  0.00  0.00    -0.278 NA
ATOM     12  C   UNL d   1      23.710  18.688  11.237  0.00  0.00     0.123 A 
ATOM     13  H   UNL d   1      23.296  18.275  13.157  0.00  0.00     0.128 HD
ATOM     14  C   UNL d   1      24.323  18.323  10.079  0.00  0.00     0.153 A 
ATOM     15  C   UNL d   1      23.482  20.144  11.452  0.00  0.00     0.272 A 
ATOM     16  N   UNL d   1      24.656  16.977   9.900  0.00  0.00    -0.371 N 
ATOM     17  N   UNL d   1      24.671  19.218   9.100  0.00  0.00    -0.201 NA
ATOM     18  C   UNL d   1      24.156  15.944  10.818  0.00  0.00     0.142 C 
ATOM     19  H   UNL d   1      24.686  16.742   8.913  0.00  0.00     0.161 HD
ATOM     20  C   UNL d   1      24.470  20.477   9.313  0.00  0.00     0.181 A 
ATOM     21  N   UNL d   1      23.877  20.958  10.437  0.00  0.00    -0.297 N 
ATOM     22  H   UNL d   1      23.788  21.946  10.591  0.00  0.00     0.171 HD
ATOM     23  O   UNL d   1      23.011  20.579  12.501  0.00  0.00    -0.266 OA
BRANCH  20  24
ATOM     24  N   UNL d   1      24.855  21.393   8.391  0.00  0.00    -0.272 NA
ATOM     25  H   UNL d   1      24.904  22.358   8.683  0.00  0.00     0.127 HD
ATOM     26  H   UNL d   1      24.385  21.260   7.501  0.00  0.00     0.127 HD
ENDBRANCH  20  24
ENDBRANCH   9  10
ENDBRANCH   7   9
ENDBRANCH   1   7
BRANCH   4  27
ATOM     27  C17 <1> d   1      17.474  17.586  12.466  0.00  0.00     0.252 C 
ATOM     28  O   UNL d   1      16.394  17.175  12.873  0.00  0.00    -0.268 OA
ATOM     29  N   UNL d   1      17.654  18.899  12.106  0.00  0.00    -0.343 N 
ATOM     30  H   UNL d   1      16.908  19.555  12.305  0.00  0.00     0.163 HD
BRANCH  29  31
ATOM     31  CA  UNL d   1      18.906  19.489  11.591  0.00  0.00     0.183 C 
BRANCH  31  32
ATOM     32  CB  UNL d   1      18.950  19.477  10.057  0.00  0.00     0.046 C 
BRANCH  32  33
ATOM     33  CG  UNL d   1      20.120  18.679   9.464  0.00  0.00     0.112 C 
BRANCH  33  34
ATOM     34  CD  UNL d   1      21.030  19.567   8.645  0.00  0.00     0.139 C 
ATOM     35  OE2 UNL d   1      21.104  20.778   8.765  0.00  0.00    -0.650 OA
BRANCH  34  36
ATOM     36  OE1 UNL d   1      21.734  18.891   7.710  0.00  0.00    -0.776 OA
ATOM     37  HE1 UNL d   1      21.694  17.919   7.797  0.00  0.00     0.167 HD
ENDBRANCH  34  36
ENDBRANCH  33  34
ENDBRANCH  32  33
ENDBRANCH  31  32
BRANCH  31  38
ATOM     38  C   UNL d   1      19.360  20.841  12.199  0.00  0.00     0.163 C 
ATOM     39  OXT UNL d   1      18.967  21.218  13.300  0.00  0.00    -0.648 OA
BRANCH  38  40
ATOM     40  O   UNL d   1      20.292  21.537  11.525  0.00  0.00    -0.775 OA
ATOM     41  H   UNL d   1      20.547  22.384  11.968  0.00  0.00     0.167 HD
ENDBRANCH  38  40
ENDBRANCH  31  38
ENDBRANCH  29  31
ENDBRANCH   4  27
TORSDOF 12
ENDMDL
MODEL 8
REMARK VINA RESULT:      -8.2      2.886      4.601
REMARK  12 active torsions:
REMARK  status: ('A' for Active; 'I' for Inactive)
REMARK    1  A    between atoms: O_3  and  C_31 
REMARK    2  A    between atoms: OE1_5  and  CD_32 
REMARK    3  A    between atoms: N_9  and  C_16 
REMARK    4  A    between atoms: N_9  and  C_20 
REMARK    5  A    between atoms: CA_21  and  N_12 
REMARK       I    between atoms: N_12  and  C17_30 
REMARK    6  A    between atoms: N_13  and  C_23 
REMARK    7  A    between atoms: C_14  and  C_16 
REMARK    8  A    between atoms: CA_21  and  CB_22 
REMARK    9  A    between atoms: CA_21  and  C_31 
REMARK   10  A    between atoms: CB_22  and  CG_29 
REMARK   11  A    between atoms: C_26  and  C17_30 
REMARK   12  A    between atoms: CG_29  and  CD_32 
ROOT
ATOM      1  C   UNL d   1      24.172  21.794   8.331  0.00  0.00     0.028 A 
ATOM      2  C   UNL d   1      24.101  22.281   9.643  0.00  0.00     0.030 A 
ATOM      3  C   UNL d   1      23.578  20.555   8.060  0.00  0.00     0.030 A 
ATOM      4  C   UNL d   1      22.878  20.326  10.370  0.00  0.00     0.032 A 
ATOM      5  C   UNL d   1      23.442  21.569  10.653  0.00  0.00     0.019 A 
ATOM      6  C   UNL d   1      22.929  19.827   9.063  0.00  0.00     0.019 A 
ENDROOT
BRANCH   1   7
ATOM      7  N   UNL d   1      24.913  22.406   7.324  0.00  0.00    -0.388 N 
ATOM      8  H   UNL d   1      25.913  22.457   7.528  0.00  0.00     0.159 HD
BRANCH   7   9
ATOM      9  C   UNL d   1      24.642  22.110   5.919  0.00  0.00     0.141 C 
BRANCH   9  10
ATOM     10  C   UNL d   1      23.333  22.756   5.446  0.00  0.00     0.096 C 
ATOM     11  N   UNL d   1      22.444  21.768   4.793  0.00  0.00    -0.278 NA
ATOM     12  C   UNL d   1      21.313  22.301   4.151  0.00  0.00     0.123 A 
ATOM     13  H   UNL d   1      22.188  20.951   5.350  0.00  0.00     0.128 HD
ATOM     14  C   UNL d   1      21.211  23.594   3.742  0.00  0.00     0.153 A 
ATOM     15  C   UNL d   1      20.107  21.441   3.985  0.00  0.00     0.272 A 
ATOM     16  N   UNL d   1      22.283  24.456   3.991  0.00  0.00    -0.371 N 
ATOM     17  N   UNL d   1      20.089  24.103   3.138  0.00  0.00    -0.201 NA
ATOM     18  C   UNL d   1      23.574  23.940   4.465  0.00  0.00     0.142 C 
ATOM     19  H   UNL d   1      22.307  25.206   3.308  0.00  0.00     0.161 HD
ATOM     20  C   UNL d   1      19.054  23.340   3.012  0.00  0.00     0.181 A 
ATOM     21  N   UNL d   1      19.037  22.036   3.395  0.00  0.00    -0.297 N 
ATOM     22  H   UNL d   1      18.196  21.491   3.332  0.00  0.00     0.171 HD
ATOM     23  O   UNL d   1      20.074  20.284   4.398  0.00  0.00    -0.266 OA
BRANCH  20  24
ATOM     24  N   UNL d   1      17.910  23.829   2.472  0.00  0.00    -0.272 NA
ATOM     25  H   UNL d   1      17.037  23.432   2.788  0.00  0.00     0.127 HD
ATOM     26  H   UNL d   1      17.973  23.923   1.463  0.00  0.00     0.127 HD
ENDBRANCH  20  24
ENDBRANCH   9  10
ENDBRANCH   7   9
ENDBRANCH   1   7
BRANCH   4  27
ATOM     27  C17 <1> d   1      22.290  19.469  11.430  0.00  0.00     0.252 C 
ATOM     28  O   UNL d   1      22.932  18.555  11.934  0.00  0.00    -0.268 OA
ATOM     29  N   UNL d   1      21.076  19.860  11.939  0.00  0.00    -0.343 N 
ATOM     30  H   UNL d   1      20.777  19.462  12.820  0.00  0.00     0.163 HD
BRANCH  29  31
ATOM     31  CA  UNL d   1      20.220  20.936  11.398  0.00  0.00     0.183 C 
BRANCH  31  32
ATOM     32  CB  UNL d   1      19.361  20.441  10.226  0.00  0.00     0.046 C 
BRANCH  32  33
ATOM     33  CG  UNL d   1      18.948  21.541   9.236  0.00  0.00     0.112 C 
BRANCH  33  34
ATOM     34  CD  UNL d   1      19.963  21.689   8.126  0.00  0.00     0.139 C 
ATOM     35  OE2 UNL d   1      20.580  22.712   7.886  0.00  0.00    -0.650 OA
BRANCH  34  36
ATOM     36  OE1 UNL d   1      20.093  20.575   7.370  0.00  0.00    -0.776 OA
ATOM     37  HE1 UNL d   1      20.899  20.054   7.553  0.00  0.00     0.167 HD
ENDBRANCH  34  36
ENDBRANCH  33  34
ENDBRANCH  32  33
ENDBRANCH  31  32
BRANCH  31  38
ATOM     38  C   UNL d   1      19.423  21.791  12.414  0.00  0.00     0.163 C 
ATOM     39  OXT UNL d   1      18.271  21.507  12.734  0.00  0.00    -0.648 OA
BRANCH  38  40
ATOM     40  O   UNL d   1      20.077  22.796  13.022  0.00  0.00    -0.775 OA
ATOM     41  H   UNL d   1      20.973  22.539  13.353  0.00  0.00     0.167 HD
ENDBRANCH  38  40
ENDBRANCH  31  38
ENDBRANCH  29  31
ENDBRANCH   4  27
TORSDOF 12
ENDMDL
MODEL 9
REMARK VINA RESULT:      -8.1      1.594      2.844
REMARK  12 active torsions:
REMARK  status: ('A' for Active; 'I' for Inactive)
REMARK    1  A    between atoms: O_3  and  C_31 
REMARK    2  A    between atoms: OE1_5  and  CD_32 
REMARK    3  A    between atoms: N_9  and  C_16 
REMARK    4  A    between atoms: N_9  and  C_20 
REMARK    5  A    between atoms: CA_21  and  N_12 
REMARK       I    between atoms: N_12  and  C17_30 
REMARK    6  A    between atoms: N_13  and  C_23 
REMARK    7  A    between atoms: C_14  and  C_16 
REMARK    8  A    between atoms: CA_21  and  CB_22 
REMARK    9  A    between atoms: CA_21  and  C_31 
REMARK   10  A    between atoms: CB_22  and  CG_29 
REMARK   11  A    between atoms: C_26  and  C17_30 
REMARK   12  A    between atoms: CG_29  and  CD_32 
ROOT
ATOM      1  C   UNL d   1      21.897  19.266   9.005  0.00  0.00     0.028 A 
ATOM      2  C   UNL d   1      21.649  18.203   9.883  0.00  0.00     0.030 A 
ATOM      3  C   UNL d   1      22.255  20.502   9.559  0.00  0.00     0.030 A 
ATOM      4  C   UNL d   1      22.104  19.600  11.804  0.00  0.00     0.032 A 
ATOM      5  C   UNL d   1      21.771  18.356  11.270  0.00  0.00     0.019 A 
ATOM      6  C   UNL d   1      22.366  20.672  10.943  0.00  0.00     0.019 A 
ENDROOT
BRANCH   1   7
ATOM      7  N   UNL d   1      21.677  19.197   7.632  0.00  0.00    -0.388 N 
ATOM      8  H   UNL d   1      20.693  19.072   7.384  0.00  0.00     0.159 HD
BRANCH   7   9
ATOM      9  C   UNL d   1      22.375  20.101   6.721  0.00  0.00     0.141 C 
BRANCH   9  10
ATOM     10  C   UNL d   1      21.407  21.083   6.047  0.00  0.00     0.096 C 
ATOM     11  N   UNL d   1      20.767  20.482   4.855  0.00  0.00    -0.278 NA
ATOM     12  C   UNL d   1      20.019  21.366   4.058  0.00  0.00     0.123 A 
ATOM     13  H   UNL d   1      20.251  19.613   5.006  0.00  0.00     0.128 HD
ATOM     14  C   UNL d   1      20.185  22.715   4.059  0.00  0.00     0.153 A 
ATOM     15  C   UNL d   1      18.909  20.822   3.225  0.00  0.00     0.272 A 
ATOM     16  N   UNL d   1      21.141  23.266   4.918  0.00  0.00    -0.371 N 
ATOM     17  N   UNL d   1      19.430  23.565   3.292  0.00  0.00    -0.201 NA
ATOM     18  C   UNL d   1      22.102  22.411   5.628  0.00  0.00     0.142 C 
ATOM     19  H   UNL d   1      21.487  24.147   4.554  0.00  0.00     0.161 HD
ATOM     20  C   UNL d   1      18.468  23.071   2.584  0.00  0.00     0.181 A 
ATOM     21  N   UNL d   1      18.201  21.740   2.515  0.00  0.00    -0.297 N 
ATOM     22  H   UNL d   1      17.412  21.399   1.998  0.00  0.00     0.171 HD
ATOM     23  O   UNL d   1      18.627  19.625   3.223  0.00  0.00    -0.266 OA
BRANCH  20  24
ATOM     24  N   UNL d   1      17.666  23.889   1.860  0.00  0.00    -0.272 NA
ATOM     25  H   UNL d   1      17.637  23.750   0.860  0.00  0.00     0.127 HD
ATOM     26  H   UNL d   1      17.765  24.862   2.133  0.00  0.00     0.127 HD
ENDBRANCH  20  24
ENDBRANCH   9  10
ENDBRANCH   7   9
ENDBRANCH   1   7
BRANCH   4  27
ATOM     27  C17 <1> d   1      22.112  19.852  13.267  0.00  0.00     0.252 C 
ATOM     28  O   UNL d   1      23.163  19.924  13.892  0.00  0.00    -0.268 OA
ATOM     29  N   UNL d   1      20.909  20.177  13.844  0.00  0.00    -0.343 N 
ATOM     30  H   UNL d   1      20.919  20.602  14.763  0.00  0.00     0.163 HD
BRANCH  29  31
ATOM     31  CA  UNL d   1      19.589  20.110  13.183  0.00  0.00     0.183 C 
BRANCH  31  32
ATOM     32  CB  UNL d   1      18.601  19.244  13.977  0.00  0.00     0.046 C 
BRANCH  32  33
ATOM     33  CG  UNL d   1      18.683  17.743  13.664  0.00  0.00     0.112 C 
BRANCH  33  34
ATOM     34  CD  UNL d   1      17.746  17.366  12.539  0.00  0.00     0.139 C 
ATOM     35  OE2 UNL d   1      16.534  17.485  12.580  0.00  0.00    -0.650 OA
BRANCH  34  36
ATOM     36  OE1 UNL d   1      18.381  16.822  11.476  0.00  0.00    -0.776 OA
ATOM     37  HE1 UNL d   1      18.432  17.404  10.694  0.00  0.00     0.167 HD
ENDBRANCH  34  36
ENDBRANCH  33  34
ENDBRANCH  32  33
ENDBRANCH  31  32
BRANCH  31  38
ATOM     38  C   UNL d   1      18.968  21.444  12.695  0.00  0.00     0.163 C 
ATOM     39  OXT UNL d   1      17.784  21.526  12.378  0.00  0.00    -0.648 OA
BRANCH  38  40
ATOM     40  O   UNL d   1      19.748  22.538  12.737  0.00  0.00    -0.775 OA
ATOM     41  H   UNL d   1      20.684  22.345  12.992  0.00  0.00     0.167 HD
ENDBRANCH  38  40
ENDBRANCH  31  38
ENDBRANCH  29  31
ENDBRANCH   4  27
TORSDOF 12
ENDMDL
