REMARK  10 active torsions:
REMARK  status: ('A' for Active; 'I' for Inactive)
REMARK    1  A    between atoms: O_4  and  C_21 
REMARK    2  A    between atoms: O_4  and  C_26 
REMARK    3  A    between atoms: O_5  and  C_22 
REMARK    4  A    between atoms: O_8  and  N_12 
REMARK    5  A    between atoms: CA_16  and  N_11 
REMARK       I    between atoms: N_11  and  C_23 
REMARK    6  A    between atoms: N_14  and  C_29 
REMARK    7  A    between atoms: CA_18  and  C_22 
REMARK    8  A    between atoms: C_19  and  C_21 
REMARK    9  A    between atoms: C_23  and  C_24 
REMARK   10  A    between atoms: C_24  and  C_25 
ROOT
ATOM      1  S   UNL d   1       1.365   0.993   0.657  0.00  0.00    -0.136 SA
ATOM      2  O   UNL d   1      -2.495  -0.375   1.286  0.00  0.00    -0.271 OA
ATOM      3  N   UNL d   1      -0.682  -0.493  -0.169  0.00  0.00    -0.293 N 
ATOM      4  C   UNL d   1      -0.009   0.758  -0.513  0.00  0.00     0.187 C 
ATOM      5  CA  UNL d   1      -1.380   1.453  -0.183  0.00  0.00     0.211 C 
ATOM      6  C   UNL d   1      -1.688   0.102   0.533  0.00  0.00     0.251 C 
ATOM      7  CA  UNL d   1      -0.033  -1.693   0.031  0.00  0.00     0.117 C 
ATOM      8  C   UNL d   1       1.326  -1.750   0.160  0.00  0.00    -0.013 C 
ATOM      9  C   UNL d   1       2.221  -0.530   0.134  0.00  0.00     0.115 C 
ENDROOT
BRANCH   5  10
ATOM     10  N   UNL d   1      -1.338   2.800   0.490  0.00  0.00    -0.339 N 
ATOM     11  C   UNL d   1      -0.696   3.817  -0.214  0.00  0.00     0.275 C 
ATOM     12  O   UNL d   1      -0.608   4.944   0.274  0.00  0.00    -0.266 OA
ATOM     13  H   UNL d   1      -1.899   3.042   1.300  0.00  0.00     0.163 HD
BRANCH  11  14
ATOM     14  C   UNL d   1      -0.104   3.595  -1.610  0.00  0.00     0.180 C 
ATOM     15  N   UNL d   1       0.899   4.191  -2.183  0.00  0.00    -0.126 NA
BRANCH  15  16
ATOM     16  O   UNL d   1       1.566   5.172  -1.449  0.00  0.00    -0.261 OA
ATOM     17  C   UNL d   1       2.066   6.121  -2.408  0.00  0.00     0.240 C 
ENDBRANCH  15  16
BRANCH  14  18
ATOM     18  C   UNL d   1      -0.827   2.668  -2.495  0.00  0.00     0.102 A 
ATOM     19  N   UNL d   1      -2.186   2.422  -2.345  0.00  0.00    -0.222 NA
ATOM     20  C   UNL d   1      -2.627   1.687  -3.334  0.00  0.00     0.164 A 
ATOM     21  S   UNL d   1      -1.440   1.157  -4.452  0.00  0.00    -0.062 SA
ATOM     22  C   UNL d   1      -0.248   2.016  -3.573  0.00  0.00     0.087 A 
BRANCH  20  23
ATOM     23  N   UNL d   1      -3.918   1.359  -3.477  0.00  0.00    -0.378 N 
ATOM     24  H   UNL d   1      -4.168   0.589  -4.083  0.00  0.00     0.158 HD
ATOM     25  H   UNL d   1      -4.505   1.482  -2.660  0.00  0.00     0.158 HD
ENDBRANCH  20  23
ENDBRANCH  14  18
ENDBRANCH  11  14
ENDBRANCH   5  10
BRANCH   7  26
ATOM     26  C   UNL d   1      -0.858  -2.968  -0.036  0.00  0.00     0.194 C 
ATOM     27  OXT UNL d   1      -0.450  -4.053   0.360  0.00  0.00    -0.645 OA
BRANCH  26  28
ATOM     28  O   UNL d   1      -2.018  -2.862  -0.704  0.00  0.00    -0.772 OA
ATOM     29  H   UNL d   1      -2.363  -1.950  -0.811  0.00  0.00     0.167 HD
ENDBRANCH  26  28
ENDBRANCH   7  26
BRANCH   8  30
ATOM     30  C   UNL d   1       2.097  -3.036   0.419  0.00  0.00     0.216 C 
BRANCH  30  31
ATOM     31  O   UNL d   1       3.286  -2.762   1.175  0.00  0.00    -0.317 OA
BRANCH  31  32
ATOM     32  C   UNL d   1       3.128  -2.612   2.516  0.00  0.00     0.255 C 
ATOM     33  O   UNL d   1       2.069  -2.690   3.119  0.00  0.00    -0.266 OA
ATOM     34  C   UNL d   1       4.453  -2.349   3.162  0.00  0.00     0.126 C 
ENDBRANCH  31  32
ENDBRANCH  30  31
ENDBRANCH   8  30
TORSDOF 10
