@<TRIPOS>MOLECULE
5742673
 47 49 0 0 0
SMALL
GASTEIGER

@<TRIPOS>ATOM
      1 S           1.3653    0.9934    0.6570 S.3     1  UNL11      -0.1310
      2 S          -1.4396    1.1573   -4.4519 S.3     1  UNL11      -0.0604
      3 O          -2.4946   -0.3754    1.2857 O.2     1  UNL11      -0.2731
      4 O           3.2863   -2.7622    1.1747 O.3     1  UNL11      -0.4603
      5 O          -2.0180   -2.8623   -0.7039 O.3     1  UNL11      -0.4763
      6 OXT        -0.4499   -4.0526    0.3600 O.2     1  UNL11      -0.2437
      7 O          -0.6077    4.9444    0.2743 O.2     1  UNL11      -0.2683
      8 O           1.5657    5.1719   -1.4486 O.2     1  UNL11      -0.3964
      9 O           2.0687   -2.6899    3.1191 O.2     1  UNL11      -0.2512
     10 N          -0.6819   -0.4932   -0.1685 N.am    1  UNL11      -0.2489
     11 N          -1.3379    2.8003    0.4904 N.am    1  UNL11      -0.2963
     12 N           0.8986    4.1906   -2.1834 N.2     1  UNL11      -0.0779
     13 N          -2.1857    2.4219   -2.3454 N.pl3   1  UNL11      -0.2233
     14 N          -3.9178    1.3588   -3.4767 N.pl3   1  UNL11      -0.3375
     15 C          -0.0085    0.7581   -0.5129 C.3     1  UNL11       0.1042
     16 CA         -1.3801    1.4532   -0.1831 C.3     1  UNL11       0.1286
     17 C          -1.6878    0.1019    0.5327 C.2     1  UNL11       0.2440
     18 CA         -0.0328   -1.6926    0.0311 C.2     1  UNL11       0.1252
     19 C           1.3264   -1.7495    0.1603 C.2     1  UNL11       0.0056
     20 C           2.2206   -0.5298    0.1342 C.3     1  UNL11       0.0220
     21 C           2.0967   -3.0364    0.4193 C.3     1  UNL11       0.1166
     22 C          -0.8577   -2.9684   -0.0359 C.2     1  UNL11       0.3515
     23 C          -0.6960    3.8167   -0.2143 C.2     1  UNL11       0.2684
     24 C          -0.1042    3.5951   -1.6104 C.2     1  UNL11       0.1897
     25 C          -0.8266    2.6677   -2.4947 C.3     1  UNL11       0.1067
     26 C           3.1277   -2.6116    2.5156 C.2     1  UNL11       0.3043
     27 C          -0.2481    2.0157   -3.5732 C.3     1  UNL11       0.0067
     28 C           4.4533   -2.3490    3.1623 C.3     1  UNL11       0.0332
     29 C          -2.6268    1.6867   -3.3340 C.3     1  UNL11       0.1562
     30 C           2.0656    6.1211   -2.4079 C.3     1  UNL11       0.1072
     31 H           0.2833    0.8194   -1.5682 H       1  UNL11       0.0644
     32 HA         -2.0487    1.5281   -1.0580 H       1  UNL11       0.0622
     33 H           2.6157   -0.3955   -0.8812 H       1  UNL11       0.0424
     34 H           3.0833   -0.6509    0.7951 H       1  UNL11       0.0424
     35 H          -1.8991    3.0415    1.3002 H       1  UNL11       0.1499
     36 H           1.4901   -3.7591    0.9763 H       1  UNL11       0.0746
     37 H           2.3568   -3.5650   -0.5096 H       1  UNL11       0.0746
     38 H          -2.3626   -1.9501   -0.8110 H       1  UNL11       0.2954
     39 H           0.7798    2.0513   -3.9070 H       1  UNL11       0.0716
     40 H           5.1432   -3.1672    2.9392 H       1  UNL11       0.0342
     41 H           4.8564   -1.3978    2.8077 H       1  UNL11       0.0342
     42 H           4.3230   -2.2937    4.2470 H       1  UNL11       0.0342
     43 H           2.4464    5.6165   -3.3070 H       1  UNL11       0.0687
     44 H           1.2779    6.8240   -2.7080 H       1  UNL11       0.0687
     45 H           2.8879    6.6809   -1.9578 H       1  UNL11       0.0687
     46 H          -4.1678    0.5889   -4.0829 H       1  UNL11       0.1442
     47 H          -4.5049    1.4816   -2.6605 H       1  UNL11       0.1442
@<TRIPOS>BOND
     1     1    15    1
     2     1    20    1
     3     2    27   ar
     4     2    29   ar
     5     3    17    2
     6     4    21    1
     7     4    26    1
     8     5    22    1
     9     5    38    1
    10     6    22    2
    11     7    23    2
    12     8    12    1
    13     8    30    1
    14     9    26    2
    15    10    15    1
    16    10    17   am
    17    10    18    1
    18    16    11    1
    19    11    23   am
    20    11    35    1
    21    12    24    2
    22    13    25   ar
    23    13    29   ar
    24    14    29    1
    25    14    46    1
    26    14    47    1
    27    15    16    1
    28    15    31    1
    29    16    17    1
    30    16    32    1
    31    18    19    2
    32    18    22    1
    33    19    20    1
    34    19    21    1
    35    20    33    1
    36    20    34    1
    37    21    36    1
    38    21    37    1
    39    23    24    1
    40    24    25    1
    41    25    27   ar
    42    26    28    1
    43    27    39    1
    44    28    40    1
    45    28    41    1
    46    28    42    1
    47    30    43    1
    48    30    44    1
    49    30    45    1
