MODEL 1
REMARK VINA RESULT:      -8.6      0.000      0.000
REMARK  12 active torsions:
REMARK  status: ('A' for Active; 'I' for Inactive)
REMARK    1  A    between atoms: O_3  and  C_31 
REMARK    2  A    between atoms: OE1_5  and  CD_32 
REMARK    3  A    between atoms: N_9  and  C_16 
REMARK    4  A    between atoms: N_9  and  C_20 
REMARK    5  A    between atoms: CA_21  and  N_12 
REMARK       I    between atoms: N_12  and  C17_30 
REMARK    6  A    between atoms: N_13  and  C_23 
REMARK    7  A    between atoms: C_14  and  C_16 
REMARK    8  A    between atoms: CA_21  and  CB_22 
REMARK    9  A    between atoms: CA_21  and  C_31 
REMARK   10  A    between atoms: CB_22  and  CG_29 
REMARK   11  A    between atoms: C_26  and  C17_30 
REMARK   12  A    between atoms: CG_29  and  CD_32 
ROOT
ATOM      1  C   UNL d   1      21.032  19.348   8.796  0.00  0.00     0.028 A 
ATOM      2  C   UNL d   1      19.668  19.642   8.928  0.00  0.00     0.030 A 
ATOM      3  C   UNL d   1      21.830  19.417   9.945  0.00  0.00     0.030 A 
ATOM      4  C   UNL d   1      19.923  20.064  11.295  0.00  0.00     0.032 A 
ATOM      5  C   UNL d   1      19.109  19.977  10.167  0.00  0.00     0.019 A 
ATOM      6  C   UNL d   1      21.286  19.764  11.186  0.00  0.00     0.019 A 
ENDROOT
BRANCH   1   7
ATOM      7  N   UNL d   1      21.656  19.126   7.571  0.00  0.00    -0.388 N 
ATOM      8  H   UNL d   1      21.095  18.568   6.925  0.00  0.00     0.159 HD
BRANCH   7   9
ATOM      9  C   UNL d   1      22.379  20.204   6.900  0.00  0.00     0.141 C 
BRANCH   9  10
ATOM     10  C   UNL d   1      21.423  21.169   6.187  0.00  0.00     0.096 C 
ATOM     11  N   UNL d   1      20.810  20.543   4.993  0.00  0.00    -0.278 NA
ATOM     12  C   UNL d   1      20.076  21.411   4.163  0.00  0.00     0.123 A 
ATOM     13  H   UNL d   1      20.295  19.677   5.148  0.00  0.00     0.128 HD
ATOM     14  C   UNL d   1      20.237  22.760   4.144  0.00  0.00     0.153 A 
ATOM     15  C   UNL d   1      18.986  20.847   3.318  0.00  0.00     0.272 A 
ATOM     16  N   UNL d   1      21.172  23.331   5.014  0.00  0.00    -0.371 N 
ATOM     17  N   UNL d   1      19.495  23.594   3.346  0.00  0.00    -0.201 NA
ATOM     18  C   UNL d   1      22.121  22.494   5.760  0.00  0.00     0.142 C 
ATOM     19  H   UNL d   1      21.523  24.207   4.642  0.00  0.00     0.161 HD
ATOM     20  C   UNL d   1      18.551  23.083   2.628  0.00  0.00     0.181 A 
ATOM     21  N   UNL d   1      18.290  21.750   2.576  0.00  0.00    -0.297 N 
ATOM     22  H   UNL d   1      17.513  21.396   2.050  0.00  0.00     0.171 HD
ATOM     23  O   UNL d   1      18.709  19.650   3.331  0.00  0.00    -0.266 OA
BRANCH  20  24
ATOM     24  N   UNL d   1      17.762  23.885   1.872  0.00  0.00    -0.272 NA
ATOM     25  H   UNL d   1      17.332  24.680   2.323  0.00  0.00     0.127 HD
ATOM     26  H   UNL d   1      17.122  23.354   1.289  0.00  0.00     0.127 HD
ENDBRANCH  20  24
ENDBRANCH   9  10
ENDBRANCH   7   9
ENDBRANCH   1   7
BRANCH   4  27
ATOM     27  C17 <1> d   1      19.408  20.546  12.601  0.00  0.00     0.252 C 
ATOM     28  O   UNL d   1      19.286  21.745  12.830  0.00  0.00    -0.268 OA
ATOM     29  N   UNL d   1      18.911  19.595  13.458  0.00  0.00    -0.343 N 
ATOM     30  H   UNL d   1      18.327  19.904  14.226  0.00  0.00     0.163 HD
BRANCH  29  31
ATOM     31  CA  UNL d   1      19.018  18.134  13.282  0.00  0.00     0.183 C 
BRANCH  31  32
ATOM     32  CB  UNL d   1      19.470  17.439  14.573  0.00  0.00     0.046 C 
BRANCH  32  33
ATOM     33  CG  UNL d   1      19.351  18.306  15.835  0.00  0.00     0.112 C 
BRANCH  33  34
ATOM     34  CD  UNL d   1      17.970  18.206  16.441  0.00  0.00     0.139 C 
ATOM     35  OE2 UNL d   1      16.940  18.520  15.871  0.00  0.00    -0.650 OA
BRANCH  34  36
ATOM     36  OE1 UNL d   1      17.981  17.776  17.724  0.00  0.00    -0.776 OA
ATOM     37  HE1 UNL d   1      17.283  17.128  17.938  0.00  0.00     0.167 HD
ENDBRANCH  34  36
ENDBRANCH  33  34
ENDBRANCH  32  33
ENDBRANCH  31  32
BRANCH  31  38
ATOM     38  C   UNL d   1      17.839  17.410  12.586  0.00  0.00     0.163 C 
ATOM     39  OXT UNL d   1      18.016  16.424  11.874  0.00  0.00    -0.648 OA
BRANCH  38  40
ATOM     40  O   UNL d   1      16.596  17.834  12.876  0.00  0.00    -0.775 OA
ATOM     41  H   UNL d   1      15.887  17.232  12.538  0.00  0.00     0.167 HD
ENDBRANCH  38  40
ENDBRANCH  31  38
ENDBRANCH  29  31
ENDBRANCH   4  27
TORSDOF 12
ENDMDL
MODEL 2
REMARK VINA RESULT:      -8.2      3.645      5.991
REMARK  12 active torsions:
REMARK  status: ('A' for Active; 'I' for Inactive)
REMARK    1  A    between atoms: O_3  and  C_31 
REMARK    2  A    between atoms: OE1_5  and  CD_32 
REMARK    3  A    between atoms: N_9  and  C_16 
REMARK    4  A    between atoms: N_9  and  C_20 
REMARK    5  A    between atoms: CA_21  and  N_12 
REMARK       I    between atoms: N_12  and  C17_30 
REMARK    6  A    between atoms: N_13  and  C_23 
REMARK    7  A    between atoms: C_14  and  C_16 
REMARK    8  A    between atoms: CA_21  and  CB_22 
REMARK    9  A    between atoms: CA_21  and  C_31 
REMARK   10  A    between atoms: CB_22  and  CG_29 
REMARK   11  A    between atoms: C_26  and  C17_30 
REMARK   12  A    between atoms: CG_29  and  CD_32 
ROOT
ATOM      1  C   UNL d   1      18.696  16.973  12.257  0.00  0.00     0.028 A 
ATOM      2  C   UNL d   1      19.384  16.806  13.466  0.00  0.00     0.030 A 
ATOM      3  C   UNL d   1      18.941  16.050  11.232  0.00  0.00     0.030 A 
ATOM      4  C   UNL d   1      20.524  14.848  12.620  0.00  0.00     0.032 A 
ATOM      5  C   UNL d   1      20.275  15.742  13.660  0.00  0.00     0.019 A 
ATOM      6  C   UNL d   1      19.839  14.992  11.408  0.00  0.00     0.019 A 
ENDROOT
BRANCH   1   7
ATOM      7  N   UNL d   1      17.893  18.075  11.976  0.00  0.00    -0.388 N 
ATOM      8  H   UNL d   1      17.001  18.066  12.474  0.00  0.00     0.159 HD
BRANCH   7   9
ATOM      9  C   UNL d   1      18.473  19.413  11.889  0.00  0.00     0.141 C 
BRANCH   9  10
ATOM     10  C   UNL d   1      18.791  19.799  10.438  0.00  0.00     0.096 C 
ATOM     11  N   UNL d   1      20.152  19.365  10.046  0.00  0.00    -0.278 NA
ATOM     12  C   UNL d   1      20.609  19.847   8.806  0.00  0.00     0.123 A 
ATOM     13  H   UNL d   1      20.355  18.370  10.140  0.00  0.00     0.128 HD
ATOM     14  C   UNL d   1      20.107  20.949   8.188  0.00  0.00     0.153 A 
ATOM     15  C   UNL d   1      21.638  19.066   8.065  0.00  0.00     0.272 A 
ATOM     16  N   UNL d   1      19.056  21.637   8.806  0.00  0.00    -0.371 N 
ATOM     17  N   UNL d   1      20.547  21.391   6.966  0.00  0.00    -0.201 NA
ATOM     18  C   UNL d   1      18.659  21.330  10.186  0.00  0.00     0.142 C 
ATOM     19  H   UNL d   1      19.055  22.614   8.531  0.00  0.00     0.161 HD
ATOM     20  C   UNL d   1      21.434  20.692   6.340  0.00  0.00     0.181 A 
ATOM     21  N   UNL d   1      21.999  19.568   6.854  0.00  0.00    -0.297 N 
ATOM     22  H   UNL d   1      22.644  19.021   6.314  0.00  0.00     0.171 HD
ATOM     23  O   UNL d   1      22.092  18.011   8.504  0.00  0.00    -0.266 OA
BRANCH  20  24
ATOM     24  N   UNL d   1      21.850  21.070   5.106  0.00  0.00    -0.272 NA
ATOM     25  H   UNL d   1      22.811  21.363   5.005  0.00  0.00     0.127 HD
ATOM     26  H   UNL d   1      21.187  21.688   4.650  0.00  0.00     0.127 HD
ENDBRANCH  20  24
ENDBRANCH   9  10
ENDBRANCH   7   9
ENDBRANCH   1   7
BRANCH   4  27
ATOM     27  C17 <1> d   1      21.558  13.788  12.724  0.00  0.00     0.252 C 
ATOM     28  O   UNL d   1      21.254  12.630  12.987  0.00  0.00    -0.268 OA
ATOM     29  N   UNL d   1      22.831  14.128  12.336  0.00  0.00    -0.343 N 
ATOM     30  H   UNL d   1      23.488  13.380  12.149  0.00  0.00     0.163 HD
BRANCH  29  31
ATOM     31  CA  UNL d   1      23.301  15.489  12.013  0.00  0.00     0.183 C 
BRANCH  31  32
ATOM     32  CB  UNL d   1      23.749  16.247  13.269  0.00  0.00     0.046 C 
BRANCH  32  33
ATOM     33  CG  UNL d   1      24.129  17.715  13.022  0.00  0.00     0.112 C 
BRANCH  33  34
ATOM     34  CD  UNL d   1      22.916  18.542  12.664  0.00  0.00     0.139 C 
ATOM     35  OE2 UNL d   1      22.075  18.917  13.462  0.00  0.00    -0.650 OA
BRANCH  34  36
ATOM     36  OE1 UNL d   1      22.814  18.793  11.339  0.00  0.00    -0.776 OA
ATOM     37  HE1 UNL d   1      23.608  19.201  10.943  0.00  0.00     0.167 HD
ENDBRANCH  34  36
ENDBRANCH  33  34
ENDBRANCH  32  33
ENDBRANCH  31  32
BRANCH  31  38
ATOM     38  C   UNL d   1      24.288  15.642  10.829  0.00  0.00     0.163 C 
ATOM     39  OXT UNL d   1      25.335  15.000  10.774  0.00  0.00    -0.648 OA
BRANCH  38  40
ATOM     40  O   UNL d   1      23.907  16.425   9.804  0.00  0.00    -0.775 OA
ATOM     41  H   UNL d   1      23.287  15.976   9.178  0.00  0.00     0.167 HD
ENDBRANCH  38  40
ENDBRANCH  31  38
ENDBRANCH  29  31
ENDBRANCH   4  27
TORSDOF 12
ENDMDL
MODEL 3
REMARK VINA RESULT:      -8.2      1.597      2.137
REMARK  12 active torsions:
REMARK  status: ('A' for Active; 'I' for Inactive)
REMARK    1  A    between atoms: O_3  and  C_31 
REMARK    2  A    between atoms: OE1_5  and  CD_32 
REMARK    3  A    between atoms: N_9  and  C_16 
REMARK    4  A    between atoms: N_9  and  C_20 
REMARK    5  A    between atoms: CA_21  and  N_12 
REMARK       I    between atoms: N_12  and  C17_30 
REMARK    6  A    between atoms: N_13  and  C_23 
REMARK    7  A    between atoms: C_14  and  C_16 
REMARK    8  A    between atoms: CA_21  and  CB_22 
REMARK    9  A    between atoms: CA_21  and  C_31 
REMARK   10  A    between atoms: CB_22  and  CG_29 
REMARK   11  A    between atoms: C_26  and  C17_30 
REMARK   12  A    between atoms: CG_29  and  CD_32 
ROOT
ATOM      1  C   UNL d   1      21.819  19.780   9.791  0.00  0.00     0.028 A 
ATOM      2  C   UNL d   1      21.956  20.434  11.023  0.00  0.00     0.030 A 
ATOM      3  C   UNL d   1      20.522  19.508   9.336  0.00  0.00     0.030 A 
ATOM      4  C   UNL d   1      19.557  20.522  11.315  0.00  0.00     0.032 A 
ATOM      5  C   UNL d   1      20.838  20.823  11.773  0.00  0.00     0.019 A 
ATOM      6  C   UNL d   1      19.399  19.879  10.082  0.00  0.00     0.019 A 
ENDROOT
BRANCH   1   7
ATOM      7  N   UNL d   1      22.894  19.271   9.067  0.00  0.00    -0.388 N 
ATOM      8  H   UNL d   1      22.628  18.538   8.407  0.00  0.00     0.159 HD
BRANCH   7   9
ATOM      9  C   UNL d   1      23.917  20.165   8.531  0.00  0.00     0.141 C 
BRANCH   9  10
ATOM     10  C   UNL d   1      23.305  21.273   7.665  0.00  0.00     0.096 C 
ATOM     11  N   UNL d   1      22.681  20.723   6.439  0.00  0.00    -0.278 NA
ATOM     12  C   UNL d   1      22.270  21.674   5.488  0.00  0.00     0.123 A 
ATOM     13  H   UNL d   1      21.956  20.019   6.577  0.00  0.00     0.128 HD
ATOM     14  C   UNL d   1      22.759  22.941   5.420  0.00  0.00     0.153 A 
ATOM     15  C   UNL d   1      21.167  21.324   4.550  0.00  0.00     0.272 A 
ATOM     16  N   UNL d   1      23.713  23.336   6.365  0.00  0.00    -0.371 N 
ATOM     17  N   UNL d   1      22.330  23.864   4.502  0.00  0.00    -0.201 NA
ATOM     18  C   UNL d   1      24.346  22.356   7.256  0.00  0.00     0.142 C 
ATOM     19  H   UNL d   1      24.305  24.072   5.993  0.00  0.00     0.161 HD
ATOM     20  C   UNL d   1      21.366  23.540   3.704  0.00  0.00     0.181 A 
ATOM     21  N   UNL d   1      20.793  22.308   3.688  0.00  0.00    -0.297 N 
ATOM     22  H   UNL d   1      20.010  22.110   3.093  0.00  0.00     0.171 HD
ATOM     23  O   UNL d   1      20.604  20.232   4.590  0.00  0.00    -0.266 OA
BRANCH  20  24
ATOM     24  N   UNL d   1      20.879  24.446   2.823  0.00  0.00    -0.272 NA
ATOM     25  H   UNL d   1      20.682  24.129   1.884  0.00  0.00     0.127 HD
ATOM     26  H   UNL d   1      21.385  25.325   2.856  0.00  0.00     0.127 HD
ENDBRANCH  20  24
ENDBRANCH   9  10
ENDBRANCH   7   9
ENDBRANCH   1   7
BRANCH   4  27
ATOM     27  C17 <1> d   1      18.346  20.787  12.133  0.00  0.00     0.252 C 
ATOM     28  O   UNL d   1      17.641  21.768  11.921  0.00  0.00    -0.268 OA
ATOM     29  N   UNL d   1      17.960  19.797  13.003  0.00  0.00    -0.343 N 
ATOM     30  H   UNL d   1      17.019  19.830  13.375  0.00  0.00     0.163 HD
BRANCH  29  31
ATOM     31  CA  UNL d   1      18.739  18.589  13.336  0.00  0.00     0.183 C 
BRANCH  31  32
ATOM     32  CB  UNL d   1      18.735  18.310  14.846  0.00  0.00     0.046 C 
BRANCH  32  33
ATOM     33  CG  UNL d   1      17.339  18.314  15.486  0.00  0.00     0.112 C 
BRANCH  33  34
ATOM     34  CD  UNL d   1      17.428  18.274  16.995  0.00  0.00     0.139 C 
ATOM     35  OE2 UNL d   1      16.578  18.713  17.749  0.00  0.00    -0.650 OA
BRANCH  34  36
ATOM     36  OE1 UNL d   1      18.586  17.741  17.446  0.00  0.00    -0.776 OA
ATOM     37  HE1 UNL d   1      19.198  17.451  16.743  0.00  0.00     0.167 HD
ENDBRANCH  34  36
ENDBRANCH  33  34
ENDBRANCH  32  33
ENDBRANCH  31  32
BRANCH  31  38
ATOM     38  C   UNL d   1      18.487  17.319  12.486  0.00  0.00     0.163 C 
ATOM     39  OXT UNL d   1      19.382  16.508  12.256  0.00  0.00    -0.648 OA
BRANCH  38  40
ATOM     40  O   UNL d   1      17.223  17.077  12.097  0.00  0.00    -0.775 OA
ATOM     41  H   UNL d   1      17.163  16.610  11.227  0.00  0.00     0.167 HD
ENDBRANCH  38  40
ENDBRANCH  31  38
ENDBRANCH  29  31
ENDBRANCH   4  27
TORSDOF 12
ENDMDL
MODEL 4
REMARK VINA RESULT:      -8.1      2.489      3.118
REMARK  12 active torsions:
REMARK  status: ('A' for Active; 'I' for Inactive)
REMARK    1  A    between atoms: O_3  and  C_31 
REMARK    2  A    between atoms: OE1_5  and  CD_32 
REMARK    3  A    between atoms: N_9  and  C_16 
REMARK    4  A    between atoms: N_9  and  C_20 
REMARK    5  A    between atoms: CA_21  and  N_12 
REMARK       I    between atoms: N_12  and  C17_30 
REMARK    6  A    between atoms: N_13  and  C_23 
REMARK    7  A    between atoms: C_14  and  C_16 
REMARK    8  A    between atoms: CA_21  and  CB_22 
REMARK    9  A    between atoms: CA_21  and  C_31 
REMARK   10  A    between atoms: CB_22  and  CG_29 
REMARK   11  A    between atoms: C_26  and  C17_30 
REMARK   12  A    between atoms: CG_29  and  CD_32 
ROOT
ATOM      1  C   UNL d   1      20.608  20.185   8.672  0.00  0.00     0.028 A 
ATOM      2  C   UNL d   1      21.253  20.478   9.881  0.00  0.00     0.030 A 
ATOM      3  C   UNL d   1      19.208  20.191   8.659  0.00  0.00     0.030 A 
ATOM      4  C   UNL d   1      19.136  20.765  11.014  0.00  0.00     0.032 A 
ATOM      5  C   UNL d   1      20.529  20.787  11.040  0.00  0.00     0.019 A 
ATOM      6  C   UNL d   1      18.473  20.484   9.813  0.00  0.00     0.019 A 
ENDROOT
BRANCH   1   7
ATOM      7  N   UNL d   1      21.277  19.759   7.528  0.00  0.00    -0.388 N 
ATOM      8  H   UNL d   1      20.668  19.661   6.713  0.00  0.00     0.159 HD
BRANCH   7   9
ATOM      9  C   UNL d   1      22.587  20.310   7.185  0.00  0.00     0.141 C 
BRANCH   9  10
ATOM     10  C   UNL d   1      22.491  21.324   6.038  0.00  0.00     0.096 C 
ATOM     11  N   UNL d   1      23.831  21.804   5.624  0.00  0.00    -0.278 NA
ATOM     12  C   UNL d   1      23.836  22.881   4.719  0.00  0.00     0.123 A 
ATOM     13  H   UNL d   1      24.498  21.089   5.333  0.00  0.00     0.128 HD
ATOM     14  C   UNL d   1      22.791  23.733   4.546  0.00  0.00     0.153 A 
ATOM     15  C   UNL d   1      25.010  23.059   3.820  0.00  0.00     0.272 A 
ATOM     16  N   UNL d   1      21.627  23.518   5.293  0.00  0.00    -0.371 N 
ATOM     17  N   UNL d   1      22.803  24.764   3.641  0.00  0.00    -0.201 NA
ATOM     18  C   UNL d   1      21.607  22.554   6.400  0.00  0.00     0.142 C 
ATOM     19  H   UNL d   1      21.120  24.386   5.428  0.00  0.00     0.161 HD
ATOM     20  C   UNL d   1      23.830  24.893   2.867  0.00  0.00     0.181 A 
ATOM     21  N   UNL d   1      24.927  24.095   2.941  0.00  0.00    -0.297 N 
ATOM     22  H   UNL d   1      25.681  24.191   2.287  0.00  0.00     0.171 HD
ATOM     23  O   UNL d   1      25.968  22.289   3.844  0.00  0.00    -0.266 OA
BRANCH  20  24
ATOM     24  N   UNL d   1      23.851  25.866   1.923  0.00  0.00    -0.272 NA
ATOM     25  H   UNL d   1      22.998  26.039   1.410  0.00  0.00     0.127 HD
ATOM     26  H   UNL d   1      24.675  25.810   1.334  0.00  0.00     0.127 HD
ENDBRANCH  20  24
ENDBRANCH   9  10
ENDBRANCH   7   9
ENDBRANCH   1   7
BRANCH   4  27
ATOM     27  C17 <1> d   1      18.323  20.948  12.242  0.00  0.00     0.252 C 
ATOM     28  O   UNL d   1      17.777  22.019  12.487  0.00  0.00    -0.268 OA
ATOM     29  N   UNL d   1      18.065  19.822  12.986  0.00  0.00    -0.343 N 
ATOM     30  H   UNL d   1      17.316  19.862  13.666  0.00  0.00     0.163 HD
BRANCH  29  31
ATOM     31  CA  UNL d   1      18.677  18.495  12.782  0.00  0.00     0.183 C 
BRANCH  31  32
ATOM     32  CB  UNL d   1      19.559  18.090  13.971  0.00  0.00     0.046 C 
BRANCH  32  33
ATOM     33  CG  UNL d   1      19.274  18.866  15.265  0.00  0.00     0.112 C 
BRANCH  33  34
ATOM     34  CD  UNL d   1      18.129  18.249  16.035  0.00  0.00     0.139 C 
ATOM     35  OE2 UNL d   1      16.987  18.159  15.620  0.00  0.00    -0.650 OA
BRANCH  34  36
ATOM     36  OE1 UNL d   1      18.480  17.841  17.276  0.00  0.00    -0.776 OA
ATOM     37  HE1 UNL d   1      17.985  18.274  17.998  0.00  0.00     0.167 HD
ENDBRANCH  34  36
ENDBRANCH  33  34
ENDBRANCH  32  33
ENDBRANCH  31  32
BRANCH  31  38
ATOM     38  C   UNL d   1      17.755  17.349  12.295  0.00  0.00     0.163 C 
ATOM     39  OXT UNL d   1      18.211  16.310  11.824  0.00  0.00    -0.648 OA
BRANCH  38  40
ATOM     40  O   UNL d   1      16.434  17.488  12.508  0.00  0.00    -0.775 OA
ATOM     41  H   UNL d   1      16.203  17.629  13.459  0.00  0.00     0.167 HD
ENDBRANCH  38  40
ENDBRANCH  31  38
ENDBRANCH  29  31
ENDBRANCH   4  27
TORSDOF 12
ENDMDL
MODEL 5
REMARK VINA RESULT:      -7.9      4.076      6.750
REMARK  12 active torsions:
REMARK  status: ('A' for Active; 'I' for Inactive)
REMARK    1  A    between atoms: O_3  and  C_31 
REMARK    2  A    between atoms: OE1_5  and  CD_32 
REMARK    3  A    between atoms: N_9  and  C_16 
REMARK    4  A    between atoms: N_9  and  C_20 
REMARK    5  A    between atoms: CA_21  and  N_12 
REMARK       I    between atoms: N_12  and  C17_30 
REMARK    6  A    between atoms: N_13  and  C_23 
REMARK    7  A    between atoms: C_14  and  C_16 
REMARK    8  A    between atoms: CA_21  and  CB_22 
REMARK    9  A    between atoms: CA_21  and  C_31 
REMARK   10  A    between atoms: CB_22  and  CG_29 
REMARK   11  A    between atoms: C_26  and  C17_30 
REMARK   12  A    between atoms: CG_29  and  CD_32 
ROOT
ATOM      1  C   UNL d   1      21.756  16.230  12.222  0.00  0.00     0.028 A 
ATOM      2  C   UNL d   1      20.955  16.257  11.073  0.00  0.00     0.030 A 
ATOM      3  C   UNL d   1      21.203  16.708  13.417  0.00  0.00     0.030 A 
ATOM      4  C   UNL d   1      19.111  17.221  12.305  0.00  0.00     0.032 A 
ATOM      5  C   UNL d   1      19.636  16.727  11.112  0.00  0.00     0.019 A 
ATOM      6  C   UNL d   1      19.892  17.193  13.466  0.00  0.00     0.019 A 
ENDROOT
BRANCH   1   7
ATOM      7  N   UNL d   1      23.105  15.883  12.211  0.00  0.00    -0.388 N 
ATOM      8  H   UNL d   1      23.413  15.479  11.324  0.00  0.00     0.159 HD
BRANCH   7   9
ATOM      9  C   UNL d   1      24.105  16.771  12.800  0.00  0.00     0.141 C 
BRANCH   9  10
ATOM     10  C   UNL d   1      24.536  17.868  11.819  0.00  0.00     0.096 C 
ATOM     11  N   UNL d   1      23.619  19.031  11.867  0.00  0.00    -0.278 NA
ATOM     12  C   UNL d   1      23.815  20.000  10.866  0.00  0.00     0.123 A 
ATOM     13  H   UNL d   1      23.500  19.477  12.777  0.00  0.00     0.128 HD
ATOM     14  C   UNL d   1      24.448  19.756   9.687  0.00  0.00     0.153 A 
ATOM     15  C   UNL d   1      23.396  21.404  11.131  0.00  0.00     0.272 A 
ATOM     16  N   UNL d   1      24.958  18.473   9.459  0.00  0.00    -0.371 N 
ATOM     17  N   UNL d   1      24.653  20.719   8.731  0.00  0.00    -0.201 NA
ATOM     18  C   UNL d   1      24.622  17.356  10.351  0.00  0.00     0.142 C 
ATOM     19  H   UNL d   1      25.000  18.274   8.465  0.00  0.00     0.161 HD
ATOM     20  C   UNL d   1      24.287  21.931   8.988  0.00  0.00     0.181 A 
ATOM     21  N   UNL d   1      23.656  22.294  10.136  0.00  0.00    -0.297 N 
ATOM     22  H   UNL d   1      23.438  23.255  10.324  0.00  0.00     0.171 HD
ATOM     23  O   UNL d   1      22.892  21.739  12.201  0.00  0.00    -0.266 OA
BRANCH  20  24
ATOM     24  N   UNL d   1      24.525  22.918   8.090  0.00  0.00    -0.272 NA
ATOM     25  H   UNL d   1      24.970  22.662   7.220  0.00  0.00     0.127 HD
ATOM     26  H   UNL d   1      24.927  23.743   8.523  0.00  0.00     0.127 HD
ENDBRANCH  20  24
ENDBRANCH   9  10
ENDBRANCH   7   9
ENDBRANCH   1   7
BRANCH   4  27
ATOM     27  C17 <1> d   1      17.771  17.857  12.371  0.00  0.00     0.252 C 
ATOM     28  O   UNL d   1      16.794  17.235  12.775  0.00  0.00    -0.268 OA
ATOM     29  N   UNL d   1      17.717  19.209  12.136  0.00  0.00    -0.343 N 
ATOM     30  H   UNL d   1      16.885  19.710  12.424  0.00  0.00     0.163 HD
BRANCH  29  31
ATOM     31  CA  UNL d   1      18.828  20.044  11.639  0.00  0.00     0.183 C 
BRANCH  31  32
ATOM     32  CB  UNL d   1      18.529  20.612  10.245  0.00  0.00     0.046 C 
BRANCH  32  33
ATOM     33  CG  UNL d   1      19.118  19.793   9.087  0.00  0.00     0.112 C 
BRANCH  33  34
ATOM     34  CD  UNL d   1      20.428  20.378   8.612  0.00  0.00     0.139 C 
ATOM     35  OE2 UNL d   1      21.209  19.810   7.869  0.00  0.00    -0.650 OA
BRANCH  34  36
ATOM     36  OE1 UNL d   1      20.690  21.596   9.138  0.00  0.00    -0.776 OA
ATOM     37  HE1 UNL d   1      21.595  21.697   9.491  0.00  0.00     0.167 HD
ENDBRANCH  34  36
ENDBRANCH  33  34
ENDBRANCH  32  33
ENDBRANCH  31  32
BRANCH  31  38
ATOM     38  C   UNL d   1      19.420  21.098  12.608  0.00  0.00     0.163 C 
ATOM     39  OXT UNL d   1      19.437  20.919  13.824  0.00  0.00    -0.648 OA
BRANCH  38  40
ATOM     40  O   UNL d   1      20.015  22.172  12.062  0.00  0.00    -0.775 OA
ATOM     41  H   UNL d   1      19.376  22.859  11.749  0.00  0.00     0.167 HD
ENDBRANCH  38  40
ENDBRANCH  31  38
ENDBRANCH  29  31
ENDBRANCH   4  27
TORSDOF 12
ENDMDL
MODEL 6
REMARK VINA RESULT:      -7.8      2.937      4.259
REMARK  12 active torsions:
REMARK  status: ('A' for Active; 'I' for Inactive)
REMARK    1  A    between atoms: O_3  and  C_31 
REMARK    2  A    between atoms: OE1_5  and  CD_32 
REMARK    3  A    between atoms: N_9  and  C_16 
REMARK    4  A    between atoms: N_9  and  C_20 
REMARK    5  A    between atoms: CA_21  and  N_12 
REMARK       I    between atoms: N_12  and  C17_30 
REMARK    6  A    between atoms: N_13  and  C_23 
REMARK    7  A    between atoms: C_14  and  C_16 
REMARK    8  A    between atoms: CA_21  and  CB_22 
REMARK    9  A    between atoms: CA_21  and  C_31 
REMARK   10  A    between atoms: CB_22  and  CG_29 
REMARK   11  A    between atoms: C_26  and  C17_30 
REMARK   12  A    between atoms: CG_29  and  CD_32 
ROOT
ATOM      1  C   UNL d   1      20.070  20.591  11.290  0.00  0.00     0.028 A 
ATOM      2  C   UNL d   1      21.147  19.721  11.503  0.00  0.00     0.030 A 
ATOM      3  C   UNL d   1      19.499  21.212  12.408  0.00  0.00     0.030 A 
ATOM      4  C   UNL d   1      21.060  20.096  13.890  0.00  0.00     0.032 A 
ATOM      5  C   UNL d   1      21.656  19.488  12.787  0.00  0.00     0.019 A 
ATOM      6  C   UNL d   1      19.989  20.977  13.697  0.00  0.00     0.019 A 
ENDROOT
BRANCH   1   7
ATOM      7  N   UNL d   1      19.456  20.765  10.052  0.00  0.00    -0.388 N 
ATOM      8  H   UNL d   1      19.262  21.743   9.828  0.00  0.00     0.159 HD
BRANCH   7   9
ATOM      9  C   UNL d   1      19.900  20.001   8.889  0.00  0.00     0.141 C 
BRANCH   9  10
ATOM     10  C   UNL d   1      20.399  20.919   7.766  0.00  0.00     0.096 C 
ATOM     11  N   UNL d   1      21.847  21.203   7.899  0.00  0.00    -0.278 NA
ATOM     12  C   UNL d   1      22.353  22.192   7.036  0.00  0.00     0.123 A 
ATOM     13  H   UNL d   1      22.468  20.394   7.918  0.00  0.00     0.128 HD
ATOM     14  C   UNL d   1      21.587  23.142   6.437  0.00  0.00     0.153 A 
ATOM     15  C   UNL d   1      23.796  22.156   6.668  0.00  0.00     0.272 A 
ATOM     16  N   UNL d   1      20.207  23.128   6.671  0.00  0.00    -0.371 N 
ATOM     17  N   UNL d   1      22.092  24.084   5.578  0.00  0.00    -0.201 NA
ATOM     18  C   UNL d   1      19.625  22.269   7.710  0.00  0.00     0.142 C 
ATOM     19  H   UNL d   1      19.815  24.058   6.567  0.00  0.00     0.161 HD
ATOM     20  C   UNL d   1      23.345  24.028   5.268  0.00  0.00     0.181 A 
ATOM     21  N   UNL d   1      24.205  23.116   5.795  0.00  0.00    -0.297 N 
ATOM     22  H   UNL d   1      25.159  23.068   5.488  0.00  0.00     0.171 HD
ATOM     23  O   UNL d   1      24.552  21.284   7.092  0.00  0.00    -0.266 OA
BRANCH  20  24
ATOM     24  N   UNL d   1      23.866  24.908   4.378  0.00  0.00    -0.272 NA
ATOM     25  H   UNL d   1      24.080  25.838   4.710  0.00  0.00     0.127 HD
ATOM     26  H   UNL d   1      23.372  24.896   3.493  0.00  0.00     0.127 HD
ENDBRANCH  20  24
ENDBRANCH   9  10
ENDBRANCH   7   9
ENDBRANCH   1   7
BRANCH   4  27
ATOM     27  C17 <1> d   1      21.469  19.778  15.282  0.00  0.00     0.252 C 
ATOM     28  O   UNL d   1      22.382  20.388  15.828  0.00  0.00    -0.268 OA
ATOM     29  N   UNL d   1      20.666  18.907  15.977  0.00  0.00    -0.343 N 
ATOM     30  H   UNL d   1      20.763  18.872  16.985  0.00  0.00     0.163 HD
BRANCH  29  31
ATOM     31  CA  UNL d   1      19.555  18.118  15.411  0.00  0.00     0.183 C 
BRANCH  31  32
ATOM     32  CB  UNL d   1      19.986  16.679  15.095  0.00  0.00     0.046 C 
BRANCH  32  33
ATOM     33  CG  UNL d   1      19.848  16.286  13.617  0.00  0.00     0.112 C 
BRANCH  33  34
ATOM     34  CD  UNL d   1      21.064  15.532  13.133  0.00  0.00     0.139 C 
ATOM     35  OE2 UNL d   1      21.995  16.036  12.529  0.00  0.00    -0.650 OA
BRANCH  34  36
ATOM     36  OE1 UNL d   1      21.006  14.205  13.389  0.00  0.00    -0.776 OA
ATOM     37  HE1 UNL d   1      20.236  13.751  12.994  0.00  0.00     0.167 HD
ENDBRANCH  34  36
ENDBRANCH  33  34
ENDBRANCH  32  33
ENDBRANCH  31  32
BRANCH  31  38
ATOM     38  C   UNL d   1      18.185  18.195  16.130  0.00  0.00     0.163 C 
ATOM     39  OXT UNL d   1      17.130  18.258  15.503  0.00  0.00    -0.648 OA
BRANCH  38  40
ATOM     40  O   UNL d   1      18.183  18.079  17.469  0.00  0.00    -0.775 OA
ATOM     41  H   UNL d   1      17.673  17.297  17.795  0.00  0.00     0.167 HD
ENDBRANCH  38  40
ENDBRANCH  31  38
ENDBRANCH  29  31
ENDBRANCH   4  27
TORSDOF 12
ENDMDL
MODEL 7
REMARK VINA RESULT:      -7.7      2.040      2.813
REMARK  12 active torsions:
REMARK  status: ('A' for Active; 'I' for Inactive)
REMARK    1  A    between atoms: O_3  and  C_31 
REMARK    2  A    between atoms: OE1_5  and  CD_32 
REMARK    3  A    between atoms: N_9  and  C_16 
REMARK    4  A    between atoms: N_9  and  C_20 
REMARK    5  A    between atoms: CA_21  and  N_12 
REMARK       I    between atoms: N_12  and  C17_30 
REMARK    6  A    between atoms: N_13  and  C_23 
REMARK    7  A    between atoms: C_14  and  C_16 
REMARK    8  A    between atoms: CA_21  and  CB_22 
REMARK    9  A    between atoms: CA_21  and  C_31 
REMARK   10  A    between atoms: CB_22  and  CG_29 
REMARK   11  A    between atoms: C_26  and  C17_30 
REMARK   12  A    between atoms: CG_29  and  CD_32 
ROOT
ATOM      1  C   UNL d   1      21.747  18.615   8.994  0.00  0.00     0.028 A 
ATOM      2  C   UNL d   1      20.485  19.135   9.314  0.00  0.00     0.030 A 
ATOM      3  C   UNL d   1      22.122  17.400   9.581  0.00  0.00     0.030 A 
ATOM      4  C   UNL d   1      20.013  17.261  10.769  0.00  0.00     0.032 A 
ATOM      5  C   UNL d   1      19.613  18.458  10.176  0.00  0.00     0.019 A 
ATOM      6  C   UNL d   1      21.265  16.721  10.454  0.00  0.00     0.019 A 
ENDROOT
BRANCH   1   7
ATOM      7  N   UNL d   1      22.692  19.304   8.239  0.00  0.00    -0.388 N 
ATOM      8  H   UNL d   1      22.567  19.193   7.231  0.00  0.00     0.159 HD
BRANCH   7   9
ATOM      9  C   UNL d   1      23.094  20.659   8.609  0.00  0.00     0.141 C 
BRANCH   9  10
ATOM     10  C   UNL d   1      22.652  21.687   7.559  0.00  0.00     0.096 C 
ATOM     11  N   UNL d   1      22.066  21.029   6.368  0.00  0.00    -0.278 NA
ATOM     12  C   UNL d   1      21.815  21.873   5.271  0.00  0.00     0.123 A 
ATOM     13  H   UNL d   1      21.269  20.415   6.536  0.00  0.00     0.128 HD
ATOM     14  C   UNL d   1      22.427  23.072   5.080  0.00  0.00     0.153 A 
ATOM     15  C   UNL d   1      20.752  21.494   4.299  0.00  0.00     0.272 A 
ATOM     16  N   UNL d   1      23.346  23.510   6.040  0.00  0.00    -0.371 N 
ATOM     17  N   UNL d   1      22.153  23.895   4.017  0.00  0.00    -0.201 NA
ATOM     18  C   UNL d   1      23.818  22.611   7.100  0.00  0.00     0.142 C 
ATOM     19  H   UNL d   1      24.029  24.135   5.626  0.00  0.00     0.161 HD
ATOM     20  C   UNL d   1      21.221  23.548   3.192  0.00  0.00     0.181 A 
ATOM     21  N   UNL d   1      20.535  22.379   3.289  0.00  0.00    -0.297 N 
ATOM     22  H   UNL d   1      19.780  22.169   2.662  0.00  0.00     0.171 HD
ATOM     23  O   UNL d   1      20.085  20.470   4.434  0.00  0.00    -0.266 OA
BRANCH  20  24
ATOM     24  N   UNL d   1      20.885  24.364   2.163  0.00  0.00    -0.272 NA
ATOM     25  H   UNL d   1      21.380  24.245   1.290  0.00  0.00     0.127 HD
ATOM     26  H   UNL d   1      20.801  25.332   2.453  0.00  0.00     0.127 HD
ENDBRANCH  20  24
ENDBRANCH   9  10
ENDBRANCH   7   9
ENDBRANCH   1   7
BRANCH   4  27
ATOM     27  C17 <1> d   1      19.185  16.575  11.793  0.00  0.00     0.252 C 
ATOM     28  O   UNL d   1      18.477  15.619  11.498  0.00  0.00    -0.268 OA
ATOM     29  N   UNL d   1      19.391  16.943  13.100  0.00  0.00    -0.343 N 
ATOM     30  H   UNL d   1      19.046  16.330  13.828  0.00  0.00     0.163 HD
BRANCH  29  31
ATOM     31  CA  UNL d   1      20.211  18.082  13.557  0.00  0.00     0.183 C 
BRANCH  31  32
ATOM     32  CB  UNL d   1      19.374  19.106  14.337  0.00  0.00     0.046 C 
BRANCH  32  33
ATOM     33  CG  UNL d   1      18.142  18.515  15.037  0.00  0.00     0.112 C 
BRANCH  33  34
ATOM     34  CD  UNL d   1      18.447  18.149  16.471  0.00  0.00     0.139 C 
ATOM     35  OE2 UNL d   1      19.258  17.306  16.812  0.00  0.00    -0.650 OA
BRANCH  34  36
ATOM     36  OE1 UNL d   1      17.686  18.819  17.366  0.00  0.00    -0.776 OA
ATOM     37  HE1 UNL d   1      17.396  19.703  17.068  0.00  0.00     0.167 HD
ENDBRANCH  34  36
ENDBRANCH  33  34
ENDBRANCH  32  33
ENDBRANCH  31  32
BRANCH  31  38
ATOM     38  C   UNL d   1      21.564  17.761  14.240  0.00  0.00     0.163 C 
ATOM     39  OXT UNL d   1      22.427  17.090  13.678  0.00  0.00    -0.648 OA
BRANCH  38  40
ATOM     40  O   UNL d   1      21.806  18.334  15.432  0.00  0.00    -0.775 OA
ATOM     41  H   UNL d   1      22.353  17.772  16.034  0.00  0.00     0.167 HD
ENDBRANCH  38  40
ENDBRANCH  31  38
ENDBRANCH  29  31
ENDBRANCH   4  27
TORSDOF 12
ENDMDL
MODEL 8
REMARK VINA RESULT:      -7.6      6.010     11.425
REMARK  12 active torsions:
REMARK  status: ('A' for Active; 'I' for Inactive)
REMARK    1  A    between atoms: O_3  and  C_31 
REMARK    2  A    between atoms: OE1_5  and  CD_32 
REMARK    3  A    between atoms: N_9  and  C_16 
REMARK    4  A    between atoms: N_9  and  C_20 
REMARK    5  A    between atoms: CA_21  and  N_12 
REMARK       I    between atoms: N_12  and  C17_30 
REMARK    6  A    between atoms: N_13  and  C_23 
REMARK    7  A    between atoms: C_14  and  C_16 
REMARK    8  A    between atoms: CA_21  and  CB_22 
REMARK    9  A    between atoms: CA_21  and  C_31 
REMARK   10  A    between atoms: CB_22  and  CG_29 
REMARK   11  A    between atoms: C_26  and  C17_30 
REMARK   12  A    between atoms: CG_29  and  CD_32 
ROOT
ATOM      1  C   UNL d   1      20.764  15.428  12.571  0.00  0.00     0.028 A 
ATOM      2  C   UNL d   1      20.714  16.139  13.778  0.00  0.00     0.030 A 
ATOM      3  C   UNL d   1      19.759  15.670  11.627  0.00  0.00     0.030 A 
ATOM      4  C   UNL d   1      18.700  17.287  13.091  0.00  0.00     0.032 A 
ATOM      5  C   UNL d   1      19.705  17.077  14.033  0.00  0.00     0.019 A 
ATOM      6  C   UNL d   1      18.739  16.595  11.875  0.00  0.00     0.019 A 
ENDROOT
BRANCH   1   7
ATOM      7  N   UNL d   1      21.674  14.405  12.320  0.00  0.00    -0.388 N 
ATOM      8  H   UNL d   1      22.618  14.608  12.654  0.00  0.00     0.159 HD
BRANCH   7   9
ATOM      9  C   UNL d   1      21.296  13.008  12.524  0.00  0.00     0.141 C 
BRANCH   9  10
ATOM     10  C   UNL d   1      22.355  12.248  13.332  0.00  0.00     0.096 C 
ATOM     11  N   UNL d   1      21.736  11.393  14.371  0.00  0.00    -0.278 NA
ATOM     12  C   UNL d   1      22.628  10.812  15.291  0.00  0.00     0.123 A 
ATOM     13  H   UNL d   1      21.059  10.703  14.046  0.00  0.00     0.128 HD
ATOM     14  C   UNL d   1      23.876  11.290  15.543  0.00  0.00     0.153 A 
ATOM     15  C   UNL d   1      22.239   9.545  15.970  0.00  0.00     0.272 A 
ATOM     16  N   UNL d   1      24.315  12.412  14.832  0.00  0.00    -0.371 N 
ATOM     17  N   UNL d   1      24.744  10.697  16.425  0.00  0.00    -0.201 NA
ATOM     18  C   UNL d   1      23.385  13.199  14.012  0.00  0.00     0.142 C 
ATOM     19  H   UNL d   1      25.010  12.926  15.363  0.00  0.00     0.161 HD
ATOM     20  C   UNL d   1      24.386   9.594  16.995  0.00  0.00     0.181 A 
ATOM     21  N   UNL d   1      23.169   9.018  16.811  0.00  0.00    -0.297 N 
ATOM     22  H   UNL d   1      22.948   8.133  17.228  0.00  0.00     0.171 HD
ATOM     23  O   UNL d   1      21.165   8.991  15.743  0.00  0.00    -0.266 OA
BRANCH  20  24
ATOM     24  N   UNL d   1      25.241   8.952  17.828  0.00  0.00    -0.272 NA
ATOM     25  H   UNL d   1      25.749   9.510  18.500  0.00  0.00     0.127 HD
ATOM     26  H   UNL d   1      25.820   8.279  17.339  0.00  0.00     0.127 HD
ENDBRANCH  20  24
ENDBRANCH   9  10
ENDBRANCH   7   9
ENDBRANCH   1   7
BRANCH   4  27
ATOM     27  C17 <1> d   1      17.535  18.166  13.366  0.00  0.00     0.252 C 
ATOM     28  O   UNL d   1      16.571  17.758  14.005  0.00  0.00    -0.268 OA
ATOM     29  N   UNL d   1      17.669  19.491  13.032  0.00  0.00    -0.343 N 
ATOM     30  H   UNL d   1      17.017  20.153  13.435  0.00  0.00     0.163 HD
BRANCH  29  31
ATOM     31  CA  UNL d   1      18.779  20.078  12.256  0.00  0.00     0.183 C 
BRANCH  31  32
ATOM     32  CB  UNL d   1      18.309  20.580  10.884  0.00  0.00     0.046 C 
BRANCH  32  33
ATOM     33  CG  UNL d   1      18.933  19.841   9.691  0.00  0.00     0.112 C 
BRANCH  33  34
ATOM     34  CD  UNL d   1      19.723  20.786   8.814  0.00  0.00     0.139 C 
ATOM     35  OE2 UNL d   1      20.152  20.506   7.709  0.00  0.00    -0.650 OA
BRANCH  34  36
ATOM     36  OE1 UNL d   1      19.964  21.981   9.399  0.00  0.00    -0.776 OA
ATOM     37  HE1 UNL d   1      19.350  22.206  10.126  0.00  0.00     0.167 HD
ENDBRANCH  34  36
ENDBRANCH  33  34
ENDBRANCH  32  33
ENDBRANCH  31  32
BRANCH  31  38
ATOM     38  C   UNL d   1      19.706  21.085  12.983  0.00  0.00     0.163 C 
ATOM     39  OXT UNL d   1      20.468  20.729  13.880  0.00  0.00    -0.648 OA
BRANCH  38  40
ATOM     40  O   UNL d   1      19.727  22.348  12.523  0.00  0.00    -0.775 OA
ATOM     41  H   UNL d   1      18.872  22.630  12.113  0.00  0.00     0.167 HD
ENDBRANCH  38  40
ENDBRANCH  31  38
ENDBRANCH  29  31
ENDBRANCH   4  27
TORSDOF 12
ENDMDL
MODEL 9
REMARK VINA RESULT:      -7.5      2.820      4.217
REMARK  12 active torsions:
REMARK  status: ('A' for Active; 'I' for Inactive)
REMARK    1  A    between atoms: O_3  and  C_31 
REMARK    2  A    between atoms: OE1_5  and  CD_32 
REMARK    3  A    between atoms: N_9  and  C_16 
REMARK    4  A    between atoms: N_9  and  C_20 
REMARK    5  A    between atoms: CA_21  and  N_12 
REMARK       I    between atoms: N_12  and  C17_30 
REMARK    6  A    between atoms: N_13  and  C_23 
REMARK    7  A    between atoms: C_14  and  C_16 
REMARK    8  A    between atoms: CA_21  and  CB_22 
REMARK    9  A    between atoms: CA_21  and  C_31 
REMARK   10  A    between atoms: CB_22  and  CG_29 
REMARK   11  A    between atoms: C_26  and  C17_30 
REMARK   12  A    between atoms: CG_29  and  CD_32 
ROOT
ATOM      1  C   UNL d   1      22.993  21.405  12.038  0.00  0.00     0.028 A 
ATOM      2  C   UNL d   1      23.713  20.286  12.479  0.00  0.00     0.030 A 
ATOM      3  C   UNL d   1      22.095  21.999  12.933  0.00  0.00     0.030 A 
ATOM      4  C   UNL d   1      22.642  20.373  14.646  0.00  0.00     0.032 A 
ATOM      5  C   UNL d   1      23.559  19.783  13.777  0.00  0.00     0.019 A 
ATOM      6  C   UNL d   1      21.921  21.498  14.227  0.00  0.00     0.019 A 
ENDROOT
BRANCH   1   7
ATOM      7  N   UNL d   1      23.024  21.870  10.726  0.00  0.00    -0.388 N 
ATOM      8  H   UNL d   1      23.061  22.889  10.657  0.00  0.00     0.159 HD
BRANCH   7   9
ATOM      9  C   UNL d   1      23.856  21.209   9.724  0.00  0.00     0.141 C 
BRANCH   9  10
ATOM     10  C   UNL d   1      23.115  21.048   8.390  0.00  0.00     0.096 C 
ATOM     11  N   UNL d   1      22.756  22.360   7.806  0.00  0.00    -0.278 NA
ATOM     12  C   UNL d   1      21.902  22.314   6.688  0.00  0.00     0.123 A 
ATOM     13  H   UNL d   1      23.525  23.009   7.641  0.00  0.00     0.128 HD
ATOM     14  C   UNL d   1      21.095  21.260   6.393  0.00  0.00     0.153 A 
ATOM     15  C   UNL d   1      21.940  23.433   5.707  0.00  0.00     0.272 A 
ATOM     16  N   UNL d   1      21.126  20.142   7.234  0.00  0.00    -0.371 N 
ATOM     17  N   UNL d   1      20.287  21.220   5.285  0.00  0.00    -0.201 NA
ATOM     18  C   UNL d   1      21.825  20.186   8.524  0.00  0.00     0.142 C 
ATOM     19  H   UNL d   1      20.242  19.645   7.204  0.00  0.00     0.161 HD
ATOM     20  C   UNL d   1      20.343  22.200   4.445  0.00  0.00     0.181 A 
ATOM     21  N   UNL d   1      21.120  23.299   4.629  0.00  0.00    -0.297 N 
ATOM     22  H   UNL d   1      21.180  24.014   3.928  0.00  0.00     0.171 HD
ATOM     23  O   UNL d   1      22.699  24.390   5.843  0.00  0.00    -0.266 OA
BRANCH  20  24
ATOM     24  N   UNL d   1      19.600  22.167   3.311  0.00  0.00    -0.272 NA
ATOM     25  H   UNL d   1      18.887  21.455   3.239  0.00  0.00     0.127 HD
ATOM     26  H   UNL d   1      20.170  22.256   2.476  0.00  0.00     0.127 HD
ENDBRANCH  20  24
ENDBRANCH   9  10
ENDBRANCH   7   9
ENDBRANCH   1   7
BRANCH   4  27
ATOM     27  C17 <1> d   1      22.340  19.798  15.981  0.00  0.00     0.252 C 
ATOM     28  O   UNL d   1      22.997  20.108  16.968  0.00  0.00    -0.268 OA
ATOM     29  N   UNL d   1      21.189  19.054  16.086  0.00  0.00    -0.343 N 
ATOM     30  H   UNL d   1      20.823  18.872  17.012  0.00  0.00     0.163 HD
BRANCH  29  31
ATOM     31  CA  UNL d   1      20.338  18.617  14.963  0.00  0.00     0.183 C 
BRANCH  31  32
ATOM     32  CB  UNL d   1      20.586  17.146  14.602  0.00  0.00     0.046 C 
BRANCH  32  33
ATOM     33  CG  UNL d   1      20.129  16.755  13.189  0.00  0.00     0.112 C 
BRANCH  33  34
ATOM     34  CD  UNL d   1      20.859  17.555  12.135  0.00  0.00     0.139 C 
ATOM     35  OE2 UNL d   1      21.966  17.282  11.704  0.00  0.00    -0.650 OA
BRANCH  34  36
ATOM     36  OE1 UNL d   1      20.183  18.657  11.739  0.00  0.00    -0.776 OA
ATOM     37  HE1 UNL d   1      19.529  18.984  12.386  0.00  0.00     0.167 HD
ENDBRANCH  34  36
ENDBRANCH  33  34
ENDBRANCH  32  33
ENDBRANCH  31  32
BRANCH  31  38
ATOM     38  C   UNL d   1      18.833  18.980  15.024  0.00  0.00     0.163 C 
ATOM     39  OXT UNL d   1      18.143  18.710  16.004  0.00  0.00    -0.648 OA
BRANCH  38  40
ATOM     40  O   UNL d   1      18.330  19.701  14.006  0.00  0.00    -0.775 OA
ATOM     41  H   UNL d   1      18.837  19.598  13.163  0.00  0.00     0.167 HD
ENDBRANCH  38  40
ENDBRANCH  31  38
ENDBRANCH  29  31
ENDBRANCH   4  27
TORSDOF 12
ENDMDL
