REMARK  12 active torsions:
REMARK  status: ('A' for Active; 'I' for Inactive)
REMARK    1  A    between atoms: O_3  and  C_31 
REMARK    2  A    between atoms: OE1_5  and  CD_32 
REMARK    3  A    between atoms: N_9  and  C_16 
REMARK    4  A    between atoms: N_9  and  C_20 
REMARK    5  A    between atoms: CA_21  and  N_12 
REMARK       I    between atoms: N_12  and  C17_30 
REMARK    6  A    between atoms: N_13  and  C_23 
REMARK    7  A    between atoms: C_14  and  C_16 
REMARK    8  A    between atoms: CA_21  and  CB_22 
REMARK    9  A    between atoms: CA_21  and  C_31 
REMARK   10  A    between atoms: CB_22  and  CG_29 
REMARK   11  A    between atoms: C_26  and  C17_30 
REMARK   12  A    between atoms: CG_29  and  CD_32 
ROOT
ATOM      1  C   UNL d   1       6.317   0.742  -1.391  0.00  0.00     0.028 A 
ATOM      2  C   UNL d   1       6.896   1.937  -0.943  0.00  0.00     0.030 A 
ATOM      3  C   UNL d   1       6.745   0.229  -2.622  0.00  0.00     0.030 A 
ATOM      4  C   UNL d   1       8.281   2.081  -2.920  0.00  0.00     0.032 A 
ATOM      5  C   UNL d   1       7.885   2.594  -1.686  0.00  0.00     0.019 A 
ATOM      6  C   UNL d   1       7.722   0.883  -3.380  0.00  0.00     0.019 A 
ENDROOT
BRANCH   1   7
ATOM      7  N   UNL d   1       5.252   0.116  -0.749  0.00  0.00    -0.388 N 
ATOM      8  H   UNL d   1       4.807   0.699  -0.037  0.00  0.00     0.159 HD
BRANCH   7   9
ATOM      9  C   UNL d   1       4.287  -0.674  -1.510  0.00  0.00     0.141 C 
BRANCH   9  10
ATOM     10  C   UNL d   1       4.709  -2.146  -1.604  0.00  0.00     0.096 C 
ATOM     11  N   UNL d   1       3.737  -2.941  -2.390  0.00  0.00    -0.278 NA
ATOM     12  C   UNL d   1       3.931  -4.334  -2.364  0.00  0.00     0.123 A 
ATOM     13  H   UNL d   1       3.556  -2.623  -3.342  0.00  0.00     0.128 HD
ATOM     14  C   UNL d   1       4.627  -4.986  -1.395  0.00  0.00     0.153 A 
ATOM     15  C   UNL d   1       3.434  -5.151  -3.506  0.00  0.00     0.272 A 
ATOM     16  N   UNL d   1       5.207  -4.230  -0.370  0.00  0.00    -0.371 N 
ATOM     17  N   UNL d   1       4.828  -6.343  -1.398  0.00  0.00    -0.201 NA
ATOM     18  C   UNL d   1       4.885  -2.807  -0.205  0.00  0.00     0.142 C 
ATOM     19  H   UNL d   1       5.303  -4.783   0.475  0.00  0.00     0.161 HD
ATOM     20  C   UNL d   1       4.394  -7.029  -2.403  0.00  0.00     0.181 A 
ATOM     21  N   UNL d   1       3.696  -6.484  -3.434  0.00  0.00    -0.297 N 
ATOM     22  H   UNL d   1       3.424  -7.039  -4.224  0.00  0.00     0.171 HD
ATOM     23  O   UNL d   1       2.867  -4.641  -4.470  0.00  0.00    -0.266 OA
BRANCH  20  24
ATOM     24  N   UNL d   1       4.625  -8.363  -2.466  0.00  0.00    -0.272 NA
ATOM     25  H   UNL d   1       3.930  -8.938  -2.921  0.00  0.00     0.127 HD
ATOM     26  H   UNL d   1       4.946  -8.739  -1.580  0.00  0.00     0.127 HD
ENDBRANCH  20  24
ENDBRANCH   9  10
ENDBRANCH   7   9
ENDBRANCH   1   7
BRANCH   4  27
ATOM     27  C17 <1> d   1       9.222   2.808  -3.809  0.00  0.00     0.252 C 
ATOM     28  O   UNL d   1       9.688   3.895  -3.485  0.00  0.00    -0.268 OA
ATOM     29  N   UNL d   1       9.680   2.128  -4.911  0.00  0.00    -0.343 N 
ATOM     30  H   UNL d   1      10.502   2.484  -5.383  0.00  0.00     0.163 HD
BRANCH  29  31
ATOM     31  CA  UNL d   1       9.178   0.826  -5.392  0.00  0.00     0.183 C 
BRANCH  31  32
ATOM     32  CB  UNL d   1       7.689   0.893  -5.758  0.00  0.00     0.046 C 
BRANCH  32  33
ATOM     33  CG  UNL d   1       7.097  -0.436  -6.250  0.00  0.00     0.112 C 
BRANCH  33  34
ATOM     34  CD  UNL d   1       7.202  -1.509  -5.191  0.00  0.00     0.139 C 
ATOM     35  OE2 UNL d   1       8.131  -2.291  -5.089  0.00  0.00    -0.650 OA
BRANCH  34  36
ATOM     36  OE1 UNL d   1       6.123  -1.562  -4.377  0.00  0.00    -0.776 OA
ATOM     37  HE1 UNL d   1       5.439  -0.892  -4.569  0.00  0.00     0.167 HD
ENDBRANCH  34  36
ENDBRANCH  33  34
ENDBRANCH  32  33
ENDBRANCH  31  32
BRANCH  31  38
ATOM     38  C   UNL d   1      10.028   0.079  -6.450  0.00  0.00     0.163 C 
ATOM     39  OXT UNL d   1      10.844  -0.783  -6.131  0.00  0.00    -0.648 OA
BRANCH  38  40
ATOM     40  O   UNL d   1       9.763   0.330  -7.744  0.00  0.00    -0.775 OA
ATOM     41  H   UNL d   1       8.952   0.880  -7.879  0.00  0.00     0.167 HD
ENDBRANCH  38  40
ENDBRANCH  31  38
ENDBRANCH  29  31
ENDBRANCH   4  27
TORSDOF 12
