@<TRIPOS>MOLECULE
135444742
 55 57 0 0 0
SMALL
GASTEIGER

@<TRIPOS>ATOM
      1 O           2.8669   -4.6415   -4.4699 O.2     1  UNL11      -0.2657
      2 O           9.6877    3.8948   -3.4852 O.2     1  UNL11      -0.2702
      3 O           9.7626    0.3302   -7.7439 O.3     1  UNL11      -0.4793
      4 OXT        10.8440   -0.7827   -6.1312 O.2     1  UNL11      -0.2489
      5 OE1         6.1234   -1.5620   -4.3772 O.3     1  UNL11      -0.4806
      6 OE2         8.1313   -2.2909   -5.0893 O.2     1  UNL11      -0.2510
      7 N           3.7371   -2.9414   -2.3898 N.pl3   1  UNL11      -0.3311
      8 N           5.2071   -4.2301   -0.3704 N.pl3   1  UNL11      -0.3256
      9 N           5.2520    0.1157   -0.7490 N.pl3   1  UNL11      -0.3420
     10 N           4.8279   -6.3425   -1.3983 N.pl3   1  UNL11      -0.1994
     11 N           3.6956   -6.4836   -3.4340 N.am    1  UNL11      -0.2937
     12 N           9.6801    2.1284   -4.9114 N.am    1  UNL11      -0.2983
     13 N           4.6248   -8.3634   -2.4663 N.pl3   1  UNL11      -0.3289
     14 C           4.7089   -2.1459   -1.6039 C.3     1  UNL11       0.0517
     15 C           4.8846   -2.8065   -0.2054 C.3     1  UNL11       0.0303
     16 C           4.2865   -0.6741   -1.5097 C.3     1  UNL11       0.0289
     17 C           3.9310   -4.3342   -2.3640 C.3     1  UNL11       0.1330
     18 C           4.6274   -4.9859   -1.3945 C.3     1  UNL11       0.1487
     19 C           3.4338   -5.1513   -3.5062 C.2     1  UNL11       0.2755
     20 C           6.3175    0.7420   -1.3906 C.3     1  UNL11       0.0272
     21 CA          9.1775    0.8257   -5.3919 C.3     1  UNL11       0.1209
     22 CB          7.6887    0.8932   -5.7583 C.3     1  UNL11      -0.0140
     23 C           4.3941   -7.0293   -2.4031 C.3     1  UNL11       0.1948
     24 C           6.8965    1.9368   -0.9434 C.3     1  UNL11      -0.0401
     25 C           6.7455    0.2289   -2.6220 C.3     1  UNL11      -0.0401
     26 C           8.2806    2.0806   -2.9199 C.3     1  UNL11       0.0368
     27 C           7.8846    2.5938   -1.6861 C.3     1  UNL11      -0.0479
     28 C           7.7219    0.8833   -3.3802 C.3     1  UNL11      -0.0479
     29 CG          7.0973   -0.4361   -6.2505 C.3     1  UNL11       0.0470
     30 C17         9.2219    2.8078   -3.8087 C.2     1  <1>         0.2447
     31 C          10.0285    0.0794   -6.4501 C.2     1  UNL11       0.3253
     32 CD          7.2023   -1.5087   -5.1911 C.2     1  UNL11       0.3048
     33 H           5.6730   -2.1853   -2.1303 H       1  UNL11       0.0528
     34 H           3.9665   -2.7233    0.3881 H       1  UNL11       0.0480
     35 H           5.6914   -2.3148    0.3480 H       1  UNL11       0.0480
     36 H           4.1895   -0.2707   -2.5236 H       1  UNL11       0.0480
     37 H           3.3053   -0.6237   -1.0193 H       1  UNL11       0.0480
     38 H           3.5559   -2.6230   -3.3425 H       1  UNL11       0.1467
     39 H           5.3035   -4.7833    0.4747 H       1  UNL11       0.1476
     40 H           4.8068    0.6991   -0.0367 H       1  UNL11       0.1461
     41 HA          9.2677    0.1927   -4.4976 H       1  UNL11       0.0614
     42 H           3.4235   -7.0390   -4.2240 H       1  UNL11       0.1716
     43 HB1         7.1381    1.2179   -4.8636 H       1  UNL11       0.0294
     44 HB2         7.5107    1.6645   -6.5161 H       1  UNL11       0.0294
     45 H           6.5938    2.3836   -0.0017 H       1  UNL11       0.0636
     46 H           6.2885   -0.6749   -3.0207 H       1  UNL11       0.0636
     47 H          10.5023    2.4842   -5.3831 H       1  UNL11       0.1498
     48 H           8.3277    3.4981   -1.2810 H       1  UNL11       0.0626
     49 H           8.0105    0.4732   -4.3459 H       1  UNL11       0.0626
     50 HG1         6.0398   -0.2923   -6.4937 H       1  UNL11       0.0378
     51 HG2         7.6217   -0.7968   -7.1430 H       1  UNL11       0.0378
     52 H           3.9297   -8.9376   -2.9214 H       1  UNL11       0.1451
     53 H           4.9459   -8.7389   -1.5797 H       1  UNL11       0.1451
     54 H           8.9520    0.8800   -7.8792 H       1  UNL11       0.2951
     55 HE1         5.4389   -0.8925   -4.5691 H       1  UNL11       0.2951
@<TRIPOS>BOND
     1     1    19    2
     2     2    30    2
     3     3    31    1
     4     3    54    1
     5     4    31    2
     6     5    32    1
     7     5    55    1
     8     6    32    2
     9     7    14    1
    10     7    17    1
    11     7    38    1
    12     8    15    1
    13     8    18    1
    14     8    39    1
    15     9    16    1
    16     9    20    1
    17     9    40    1
    18    10    18   ar
    19    10    23   ar
    20    11    19   ar
    21    11    23   ar
    22    11    42    1
    23    21    12    1
    24    12    30   am
    25    12    47    1
    26    13    23    1
    27    13    52    1
    28    13    53    1
    29    14    15    1
    30    14    16    1
    31    14    33    1
    32    15    34    1
    33    15    35    1
    34    16    36    1
    35    16    37    1
    36    17    18   ar
    37    17    19   ar
    38    20    24   ar
    39    20    25   ar
    40    21    22    1
    41    21    31    1
    42    21    41    1
    43    22    29    1
    44    22    43    1
    45    22    44    1
    46    24    27   ar
    47    24    45    1
    48    25    28   ar
    49    25    46    1
    50    26    27   ar
    51    26    28   ar
    52    26    30    1
    53    27    48    1
    54    28    49    1
    55    29    32    1
    56    29    50    1
    57    29    51    1
