MODEL 1
REMARK VINA RESULT:      -7.5      0.000      0.000
REMARK  17 active torsions:
REMARK  status: ('A' for Active; 'I' for Inactive)
REMARK    1  A    between atoms: C_6  and  N_7 
REMARK    2  A    between atoms: N_10  and  C_11 
REMARK    3  A    between atoms: C_12  and  O_13 
REMARK    4  A    between atoms: C_14  and  O_15 
REMARK    5  A    between atoms: C_17  and  C_18 
REMARK    6  A    between atoms: C_18  and  O_19 
REMARK    7  A    between atoms: P_20  and  O_19 
REMARK    8  A    between atoms: P_20  and  O_22 
REMARK    9  A    between atoms: P_20  and  O_23 
REMARK   10  A    between atoms: P_24  and  O_23 
REMARK   11  A    between atoms: P_24  and  O_26 
REMARK   12  A    between atoms: P_24  and  O_27 
REMARK   13  A    between atoms: O_27  and  C_28 
REMARK   14  A    between atoms: C_28  and  C_36 
REMARK   15  A    between atoms: C_31  and  O_30 
REMARK   16  A    between atoms: O_32  and  C_33 
REMARK   17  A    between atoms: O_34  and  C_35 
ROOT
ATOM      1  O   UNL d   1      21.978  20.654   7.842  0.00  0.00    -0.294 OA
ENDROOT
BRANCH   1   2
ATOM      2  C   UNL d   1      23.395  20.476   7.878  0.00  0.00     0.215 C 
BRANCH   2   3
ATOM      3  C   UNL d   1      24.099  20.795   6.566  0.00  0.00     0.180 C 
ATOM      4  C   UNL d   1      24.601  22.229   6.451  0.00  0.00     0.182 C 
ATOM      5  C   UNL d   1      23.502  22.932   5.672  0.00  0.00     0.198 C 
ATOM      6  C   UNL d   1      23.020  21.809   4.753  0.00  0.00     0.262 C 
ATOM      7  O   UNL d   1      23.210  20.564   5.455  0.00  0.00    -0.353 OA
BRANCH   4   8
ATOM      8  O   UNL d   1      25.817  22.291   5.672  0.00  0.00    -0.390 OA
ATOM      9  H   UNL d   1      26.202  23.185   5.748  0.00  0.00     0.210 HD
ENDBRANCH   4   8
BRANCH   5  10
ATOM     10  O   UNL d   1      24.028  24.060   4.967  0.00  0.00    -0.388 OA
ATOM     11  H   UNL d   1      24.578  23.695   4.245  0.00  0.00     0.210 HD
ENDBRANCH   5  10
BRANCH   6  12
ATOM     12  N   UNL d   1      21.639  21.905   4.340  0.00  0.00    -0.294 N 
ATOM     13  C   UNL d   1      21.134  22.851   3.490  0.00  0.00     0.166 A 
ATOM     14  N   UNL d   1      21.800  23.844   2.870  0.00  0.00    -0.222 NA
ATOM     15  C   UNL d   1      19.784  22.567   3.401  0.00  0.00     0.144 A 
ATOM     16  C   UNL d   1      20.963  24.571   2.104  0.00  0.00     0.237 A 
ATOM     17  N   UNL d   1      19.636  24.413   1.921  0.00  0.00    -0.228 NA
ATOM     18  C   UNL d   1      19.013  23.410   2.583  0.00  0.00     0.135 A 
ATOM     19  N   UNL d   1      19.464  21.458   4.155  0.00  0.00    -0.236 NA
ATOM     20  C   UNL d   1      20.606  21.078   4.695  0.00  0.00     0.214 A 
BRANCH  18  21
ATOM     21  N   UNL d   1      17.645  23.251   2.397  0.00  0.00    -0.285 NA
ATOM     22  H   UNL d   1      17.284  23.838   1.651  0.00  0.00     0.125 HD
ATOM     23  H   UNL d   1      17.147  23.251   3.274  0.00  0.00     0.125 HD
ENDBRANCH  18  21
ENDBRANCH   6  12
ENDBRANCH   2   3
ENDBRANCH   1   2
BRANCH   1  24
ATOM     24  P   UNL d   1      21.018  19.614   8.753  0.00  0.00     0.401 P 
ATOM     25  O   UNL d   1      19.707  20.072   8.068  0.00  0.00    -0.631 OA
BRANCH  24  26
ATOM     26  O   UNL d   1      20.795  20.600  10.043  0.00  0.00    -0.307 OA
ATOM     27  H   UNL d   1      20.799  20.067  10.858  0.00  0.00     0.222 HD
ENDBRANCH  24  26
BRANCH  24  28
ATOM     28  O   UNL d   1      22.483  19.102   9.518  0.00  0.00    -0.195 OA
BRANCH  28  29
ATOM     29  P   UNL d   1      22.146  17.641  10.380  0.00  0.00     0.401 P 
ATOM     30  O   UNL d   1      22.327  16.829   9.075  0.00  0.00    -0.631 OA
BRANCH  29  31
ATOM     31  O   UNL d   1      20.515  17.742  10.180  0.00  0.00    -0.307 OA
ATOM     32  H   UNL d   1      20.332  17.261   9.348  0.00  0.00     0.222 HD
ENDBRANCH  29  31
BRANCH  29  33
ATOM     33  O   UNL d   1      21.942  18.548  11.839  0.00  0.00    -0.294 OA
BRANCH  33  34
ATOM     34  C   UNL d   1      21.042  17.892  12.760  0.00  0.00     0.215 C 
BRANCH  34  35
ATOM     35  C   UNL d   1      20.007  18.840  13.418  0.00  0.00     0.180 C 
ATOM     36  O   UNL d   1      19.511  19.750  12.410  0.00  0.00    -0.349 OA
ATOM     37  C   UNL d   1      18.166  19.421  12.069  0.00  0.00     0.288 C 
ATOM     38  C   UNL d   1      17.880  18.062  12.699  0.00  0.00     0.204 C 
ATOM     39  C   UNL d   1      18.751  18.125  13.940  0.00  0.00     0.182 C 
BRANCH  37  40
ATOM     40  O   UNL d   1      18.053  19.346  10.662  0.00  0.00    -0.369 OA
ATOM     41  H   UNL d   1      17.099  19.409  10.469  0.00  0.00     0.212 HD
ENDBRANCH  37  40
BRANCH  38  42
ATOM     42  O   UNL d   1      16.499  17.869  12.970  0.00  0.00    -0.388 OA
ATOM     43  H   UNL d   1      16.455  17.362  13.808  0.00  0.00     0.210 HD
ENDBRANCH  38  42
BRANCH  39  44
ATOM     44  O   UNL d   1      18.043  18.909  14.920  0.00  0.00    -0.390 OA
ATOM     45  H   UNL d   1      17.339  19.421  14.476  0.00  0.00     0.210 HD
ENDBRANCH  39  44
ENDBRANCH  34  35
ENDBRANCH  33  34
ENDBRANCH  29  33
ENDBRANCH  28  29
ENDBRANCH  24  28
ENDBRANCH   1  24
TORSDOF 17
ENDMDL
MODEL 2
REMARK VINA RESULT:      -7.4      1.923      3.165
REMARK  17 active torsions:
REMARK  status: ('A' for Active; 'I' for Inactive)
REMARK    1  A    between atoms: C_6  and  N_7 
REMARK    2  A    between atoms: N_10  and  C_11 
REMARK    3  A    between atoms: C_12  and  O_13 
REMARK    4  A    between atoms: C_14  and  O_15 
REMARK    5  A    between atoms: C_17  and  C_18 
REMARK    6  A    between atoms: C_18  and  O_19 
REMARK    7  A    between atoms: P_20  and  O_19 
REMARK    8  A    between atoms: P_20  and  O_22 
REMARK    9  A    between atoms: P_20  and  O_23 
REMARK   10  A    between atoms: P_24  and  O_23 
REMARK   11  A    between atoms: P_24  and  O_26 
REMARK   12  A    between atoms: P_24  and  O_27 
REMARK   13  A    between atoms: O_27  and  C_28 
REMARK   14  A    between atoms: C_28  and  C_36 
REMARK   15  A    between atoms: C_31  and  O_30 
REMARK   16  A    between atoms: O_32  and  C_33 
REMARK   17  A    between atoms: O_34  and  C_35 
ROOT
ATOM      1  O   UNL d   1      23.611  20.369   6.600  0.00  0.00    -0.294 OA
ENDROOT
BRANCH   1   2
ATOM      2  C   UNL d   1      23.179  20.302   5.240  0.00  0.00     0.215 C 
BRANCH   2   3
ATOM      3  C   UNL d   1      23.791  21.363   4.334  0.00  0.00     0.180 C 
ATOM      4  C   UNL d   1      24.255  22.619   5.059  0.00  0.00     0.182 C 
ATOM      5  C   UNL d   1      23.094  23.584   4.884  0.00  0.00     0.198 C 
ATOM      6  C   UNL d   1      22.576  23.183   3.502  0.00  0.00     0.262 C 
ATOM      7  O   UNL d   1      22.836  21.774   3.336  0.00  0.00    -0.353 OA
BRANCH   4   8
ATOM      8  O   UNL d   1      25.417  23.190   4.415  0.00  0.00    -0.390 OA
ATOM      9  H   UNL d   1      25.515  22.798   3.526  0.00  0.00     0.210 HD
ENDBRANCH   4   8
BRANCH   5  10
ATOM     10  O   UNL d   1      23.551  24.938   4.950  0.00  0.00    -0.388 OA
ATOM     11  H   UNL d   1      23.242  25.287   5.809  0.00  0.00     0.210 HD
ENDBRANCH   5  10
BRANCH   6  12
ATOM     12  N   UNL d   1      21.170  23.427   3.280  0.00  0.00    -0.294 N 
ATOM     13  C   UNL d   1      20.652  24.504   2.615  0.00  0.00     0.166 A 
ATOM     14  N   UNL d   1      21.323  25.518   2.036  0.00  0.00    -0.222 NA
ATOM     15  C   UNL d   1      19.281  24.330   2.664  0.00  0.00     0.144 A 
ATOM     16  C   UNL d   1      20.468  26.393   1.470  0.00  0.00     0.237 A 
ATOM     17  N   UNL d   1      19.120  26.352   1.438  0.00  0.00    -0.228 NA
ATOM     18  C   UNL d   1      18.495  25.321   2.053  0.00  0.00     0.135 A 
ATOM     19  N   UNL d   1      18.958  23.160   3.319  0.00  0.00    -0.236 NA
ATOM     20  C   UNL d   1      20.119  22.636   3.664  0.00  0.00     0.214 A 
BRANCH  18  21
ATOM     21  N   UNL d   1      17.106  25.283   2.024  0.00  0.00    -0.285 NA
ATOM     22  H   UNL d   1      16.748  24.362   1.790  0.00  0.00     0.125 HD
ATOM     23  H   UNL d   1      16.721  26.073   1.530  0.00  0.00     0.125 HD
ENDBRANCH  18  21
ENDBRANCH   6  12
ENDBRANCH   2   3
ENDBRANCH   1   2
BRANCH   1  24
ATOM     24  P   UNL d   1      22.446  20.332   7.813  0.00  0.00     0.401 P 
ATOM     25  O   UNL d   1      23.403  19.681   8.842  0.00  0.00    -0.631 OA
BRANCH  24  26
ATOM     26  O   UNL d   1      21.761  18.899   7.410  0.00  0.00    -0.307 OA
ATOM     27  H   UNL d   1      21.741  18.321   8.194  0.00  0.00     0.222 HD
ENDBRANCH  24  26
BRANCH  24  28
ATOM     28  O   UNL d   1      21.377  21.059   6.663  0.00  0.00    -0.195 OA
BRANCH  28  29
ATOM     29  P   UNL d   1      20.177  21.941   7.542  0.00  0.00     0.401 P 
ATOM     30  O   UNL d   1      20.719  23.266   6.954  0.00  0.00    -0.631 OA
BRANCH  29  31
ATOM     31  O   UNL d   1      21.088  22.083   8.906  0.00  0.00    -0.307 OA
ATOM     32  H   UNL d   1      22.002  21.879   8.620  0.00  0.00     0.222 HD
ENDBRANCH  29  31
BRANCH  29  33
ATOM     33  O   UNL d   1      19.570  20.460   8.200  0.00  0.00    -0.294 OA
BRANCH  33  34
ATOM     34  C   UNL d   1      18.526  20.691   9.172  0.00  0.00     0.215 C 
BRANCH  34  35
ATOM     35  C   UNL d   1      18.704  19.901  10.494  0.00  0.00     0.180 C 
ATOM     36  O   UNL d   1      20.116  19.672  10.705  0.00  0.00    -0.349 OA
ATOM     37  C   UNL d   1      20.591  20.486  11.775  0.00  0.00     0.288 C 
ATOM     38  C   UNL d   1      19.482  21.485  12.085  0.00  0.00     0.204 C 
ATOM     39  C   UNL d   1      18.249  20.668  11.744  0.00  0.00     0.182 C 
BRANCH  37  40
ATOM     40  O   UNL d   1      21.760  21.163  11.355  0.00  0.00    -0.369 OA
ATOM     41  H   UNL d   1      21.463  21.828  10.708  0.00  0.00     0.212 HD
ENDBRANCH  37  40
BRANCH  38  42
ATOM     42  O   UNL d   1      19.521  21.941  13.430  0.00  0.00    -0.388 OA
ATOM     43  H   UNL d   1      20.211  21.407  13.878  0.00  0.00     0.210 HD
ENDBRANCH  38  42
BRANCH  39  44
ATOM     44  O   UNL d   1      17.994  19.793  12.861  0.00  0.00    -0.390 OA
ATOM     45  H   UNL d   1      18.831  19.374  13.140  0.00  0.00     0.210 HD
ENDBRANCH  39  44
ENDBRANCH  34  35
ENDBRANCH  33  34
ENDBRANCH  29  33
ENDBRANCH  28  29
ENDBRANCH  24  28
ENDBRANCH   1  24
TORSDOF 17
ENDMDL
MODEL 3
REMARK VINA RESULT:      -7.4      4.874     10.104
REMARK  17 active torsions:
REMARK  status: ('A' for Active; 'I' for Inactive)
REMARK    1  A    between atoms: C_6  and  N_7 
REMARK    2  A    between atoms: N_10  and  C_11 
REMARK    3  A    between atoms: C_12  and  O_13 
REMARK    4  A    between atoms: C_14  and  O_15 
REMARK    5  A    between atoms: C_17  and  C_18 
REMARK    6  A    between atoms: C_18  and  O_19 
REMARK    7  A    between atoms: P_20  and  O_19 
REMARK    8  A    between atoms: P_20  and  O_22 
REMARK    9  A    between atoms: P_20  and  O_23 
REMARK   10  A    between atoms: P_24  and  O_23 
REMARK   11  A    between atoms: P_24  and  O_26 
REMARK   12  A    between atoms: P_24  and  O_27 
REMARK   13  A    between atoms: O_27  and  C_28 
REMARK   14  A    between atoms: C_28  and  C_36 
REMARK   15  A    between atoms: C_31  and  O_30 
REMARK   16  A    between atoms: O_32  and  C_33 
REMARK   17  A    between atoms: O_34  and  C_35 
ROOT
ATOM      1  O   UNL d   1      21.783  18.823   8.005  0.00  0.00    -0.294 OA
ENDROOT
BRANCH   1   2
ATOM      2  C   UNL d   1      21.368  18.891   9.370  0.00  0.00     0.215 C 
BRANCH   2   3
ATOM      3  C   UNL d   1      19.875  18.676   9.583  0.00  0.00     0.180 C 
ATOM      4  C   UNL d   1      19.100  19.939   9.934  0.00  0.00     0.182 C 
ATOM      5  C   UNL d   1      19.006  19.894  11.450  0.00  0.00     0.198 C 
ATOM      6  C   UNL d   1      18.918  18.388  11.700  0.00  0.00     0.262 C 
ATOM      7  O   UNL d   1      19.656  17.731  10.649  0.00  0.00    -0.353 OA
BRANCH   4   8
ATOM      8  O   UNL d   1      17.758  19.889   9.397  0.00  0.00    -0.390 OA
ATOM      9  H   UNL d   1      17.799  19.953   8.424  0.00  0.00     0.210 HD
ENDBRANCH   4   8
BRANCH   5  10
ATOM     10  O   UNL d   1      17.858  20.615  11.905  0.00  0.00    -0.388 OA
ATOM     11  H   UNL d   1      18.116  21.026  12.754  0.00  0.00     0.210 HD
ENDBRANCH   5  10
BRANCH   6  12
ATOM     12  N   UNL d   1      19.431  17.947  12.976  0.00  0.00    -0.294 N 
ATOM     13  C   UNL d   1      18.749  17.998  14.161  0.00  0.00     0.166 A 
ATOM     14  N   UNL d   1      17.495  18.439  14.373  0.00  0.00    -0.222 NA
ATOM     15  C   UNL d   1      19.629  17.495  15.102  0.00  0.00     0.144 A 
ATOM     16  C   UNL d   1      17.165  18.326  15.675  0.00  0.00     0.237 A 
ATOM     17  N   UNL d   1      17.913  17.858  16.696  0.00  0.00    -0.228 NA
ATOM     18  C   UNL d   1      19.174  17.445  16.431  0.00  0.00     0.135 A 
ATOM     19  N   UNL d   1      20.817  17.117  14.512  0.00  0.00    -0.236 NA
ATOM     20  C   UNL d   1      20.657  17.390  13.231  0.00  0.00     0.214 A 
BRANCH  18  21
ATOM     21  N   UNL d   1      19.945  16.968  17.484  0.00  0.00    -0.285 NA
ATOM     22  H   UNL d   1      19.722  17.423  18.364  0.00  0.00     0.125 HD
ATOM     23  H   UNL d   1      20.917  16.892  17.230  0.00  0.00     0.125 HD
ENDBRANCH  18  21
ENDBRANCH   6  12
ENDBRANCH   2   3
ENDBRANCH   1   2
BRANCH   1  24
ATOM     24  P   UNL d   1      22.209  20.253   7.227  0.00  0.00     0.401 P 
ATOM     25  O   UNL d   1      20.757  20.554   6.780  0.00  0.00    -0.631 OA
BRANCH  24  26
ATOM     26  O   UNL d   1      22.614  19.599   5.780  0.00  0.00    -0.307 OA
ATOM     27  H   UNL d   1      23.549  19.799   5.589  0.00  0.00     0.222 HD
ENDBRANCH  24  26
BRANCH  24  28
ATOM     28  O   UNL d   1      23.831  19.918   7.727  0.00  0.00    -0.195 OA
BRANCH  28  29
ATOM     29  P   UNL d   1      24.766  21.352   7.483  0.00  0.00     0.401 P 
ATOM     30  O   UNL d   1      24.601  21.715   8.979  0.00  0.00    -0.631 OA
BRANCH  29  31
ATOM     31  O   UNL d   1      23.478  22.276   7.038  0.00  0.00    -0.307 OA
ATOM     32  H   UNL d   1      23.328  22.881   7.794  0.00  0.00     0.222 HD
ENDBRANCH  29  31
BRANCH  29  33
ATOM     33  O   UNL d   1      24.951  20.948   5.811  0.00  0.00    -0.294 OA
BRANCH  33  34
ATOM     34  C   UNL d   1      25.263  22.109   5.009  0.00  0.00     0.215 C 
BRANCH  34  35
ATOM     35  C   UNL d   1      24.388  22.253   3.736  0.00  0.00     0.180 C 
ATOM     36  O   UNL d   1      22.999  22.156   4.121  0.00  0.00    -0.349 OA
ATOM     37  C   UNL d   1      22.371  23.433   4.024  0.00  0.00     0.288 C 
ATOM     38  C   UNL d   1      23.489  24.451   3.824  0.00  0.00     0.204 C 
ATOM     39  C   UNL d   1      24.503  23.624   3.054  0.00  0.00     0.182 C 
BRANCH  37  40
ATOM     40  O   UNL d   1      21.673  23.697   5.225  0.00  0.00    -0.369 OA
ATOM     41  H   UNL d   1      22.328  23.590   5.940  0.00  0.00     0.212 HD
ENDBRANCH  37  40
BRANCH  38  42
ATOM     42  O   UNL d   1      23.049  25.614   3.139  0.00  0.00    -0.388 OA
ATOM     43  H   UNL d   1      23.675  26.328   3.386  0.00  0.00     0.210 HD
ENDBRANCH  38  42
BRANCH  39  44
ATOM     44  O   UNL d   1      24.070  23.590   1.680  0.00  0.00    -0.390 OA
ATOM     45  H   UNL d   1      24.321  22.732   1.284  0.00  0.00     0.210 HD
ENDBRANCH  39  44
ENDBRANCH  34  35
ENDBRANCH  33  34
ENDBRANCH  29  33
ENDBRANCH  28  29
ENDBRANCH  24  28
ENDBRANCH   1  24
TORSDOF 17
ENDMDL
MODEL 4
REMARK VINA RESULT:      -7.3      2.981      4.453
REMARK  17 active torsions:
REMARK  status: ('A' for Active; 'I' for Inactive)
REMARK    1  A    between atoms: C_6  and  N_7 
REMARK    2  A    between atoms: N_10  and  C_11 
REMARK    3  A    between atoms: C_12  and  O_13 
REMARK    4  A    between atoms: C_14  and  O_15 
REMARK    5  A    between atoms: C_17  and  C_18 
REMARK    6  A    between atoms: C_18  and  O_19 
REMARK    7  A    between atoms: P_20  and  O_19 
REMARK    8  A    between atoms: P_20  and  O_22 
REMARK    9  A    between atoms: P_20  and  O_23 
REMARK   10  A    between atoms: P_24  and  O_23 
REMARK   11  A    between atoms: P_24  and  O_26 
REMARK   12  A    between atoms: P_24  and  O_27 
REMARK   13  A    between atoms: O_27  and  C_28 
REMARK   14  A    between atoms: C_28  and  C_36 
REMARK   15  A    between atoms: C_31  and  O_30 
REMARK   16  A    between atoms: O_32  and  C_33 
REMARK   17  A    between atoms: O_34  and  C_35 
ROOT
ATOM      1  O   UNL d   1      24.010  20.952  12.588  0.00  0.00    -0.294 OA
ENDROOT
BRANCH   1   2
ATOM      2  C   UNL d   1      24.125  19.911  11.618  0.00  0.00     0.215 C 
BRANCH   2   3
ATOM      3  C   UNL d   1      25.089  20.220  10.478  0.00  0.00     0.180 C 
ATOM      4  C   UNL d   1      25.590  21.658  10.449  0.00  0.00     0.182 C 
ATOM      5  C   UNL d   1      24.674  22.337   9.444  0.00  0.00     0.198 C 
ATOM      6  C   UNL d   1      24.407  21.195   8.463  0.00  0.00     0.262 C 
ATOM      7  O   UNL d   1      24.456  19.962   9.209  0.00  0.00    -0.353 OA
BRANCH   4   8
ATOM      8  O   UNL d   1      26.943  21.724   9.943  0.00  0.00    -0.390 OA
ATOM      9  H   UNL d   1      26.961  21.381   9.029  0.00  0.00     0.210 HD
ENDBRANCH   4   8
BRANCH   5  10
ATOM     10  O   UNL d   1      25.327  23.460   8.848  0.00  0.00    -0.388 OA
ATOM     11  H   UNL d   1      24.841  23.649   8.021  0.00  0.00     0.210 HD
ENDBRANCH   5  10
BRANCH   6  12
ATOM     12  N   UNL d   1      23.144  21.269   7.766  0.00  0.00    -0.294 N 
ATOM     13  C   UNL d   1      22.810  22.215   6.836  0.00  0.00     0.166 A 
ATOM     14  N   UNL d   1      23.569  23.230   6.381  0.00  0.00    -0.222 NA
ATOM     15  C   UNL d   1      21.516  21.905   6.459  0.00  0.00     0.144 A 
ATOM     16  C   UNL d   1      22.898  23.950   5.460  0.00  0.00     0.237 A 
ATOM     17  N   UNL d   1      21.644  23.767   4.998  0.00  0.00    -0.228 NA
ATOM     18  C   UNL d   1      20.917  22.743   5.503  0.00  0.00     0.135 A 
ATOM     19  N   UNL d   1      21.069  20.779   7.118  0.00  0.00    -0.236 NA
ATOM     20  C   UNL d   1      22.078  20.416   7.886  0.00  0.00     0.214 A 
BRANCH  18  21
ATOM     21  N   UNL d   1      19.624  22.559   5.029  0.00  0.00    -0.285 NA
ATOM     22  H   UNL d   1      19.597  22.404   4.026  0.00  0.00     0.125 HD
ATOM     23  H   UNL d   1      18.985  23.236   5.415  0.00  0.00     0.125 HD
ENDBRANCH  18  21
ENDBRANCH   6  12
ENDBRANCH   2   3
ENDBRANCH   1   2
BRANCH   1  24
ATOM     24  P   UNL d   1      23.944  20.526  14.215  0.00  0.00     0.401 P 
ATOM     25  O   UNL d   1      25.373  21.047  14.506  0.00  0.00    -0.631 OA
BRANCH  24  26
ATOM     26  O   UNL d   1      24.446  18.975  14.052  0.00  0.00    -0.307 OA
ATOM     27  H   UNL d   1      24.501  18.562  14.933  0.00  0.00     0.222 HD
ENDBRANCH  24  26
BRANCH  24  28
ATOM     28  O   UNL d   1      22.347  19.946  13.889  0.00  0.00    -0.195 OA
BRANCH  28  29
ATOM     29  P   UNL d   1      21.558  19.693  15.407  0.00  0.00     0.401 P 
ATOM     30  O   UNL d   1      22.637  20.550  16.112  0.00  0.00    -0.631 OA
BRANCH  29  31
ATOM     31  O   UNL d   1      22.348  18.287  15.736  0.00  0.00    -0.307 OA
ATOM     32  H   UNL d   1      21.716  17.580  15.493  0.00  0.00     0.222 HD
ENDBRANCH  29  31
BRANCH  29  33
ATOM     33  O   UNL d   1      20.350  18.736  14.620  0.00  0.00    -0.294 OA
BRANCH  33  34
ATOM     34  C   UNL d   1      20.418  18.860  13.182  0.00  0.00     0.215 C 
BRANCH  34  35
ATOM     35  C   UNL d   1      19.117  19.398  12.530  0.00  0.00     0.180 C 
ATOM     36  O   UNL d   1      18.792  20.668  13.137  0.00  0.00    -0.349 OA
ATOM     37  C   UNL d   1      19.033  21.730  12.216  0.00  0.00     0.288 C 
ATOM     38  C   UNL d   1      19.810  21.124  11.052  0.00  0.00     0.204 C 
ATOM     39  C   UNL d   1      19.255  19.711  11.033  0.00  0.00     0.182 C 
BRANCH  37  40
ATOM     40  O   UNL d   1      19.804  22.729  12.855  0.00  0.00    -0.369 OA
ATOM     41  H   UNL d   1      19.280  23.549  12.790  0.00  0.00     0.212 HD
ENDBRANCH  37  40
BRANCH  38  42
ATOM     42  O   UNL d   1      19.617  21.838   9.839  0.00  0.00    -0.388 OA
ATOM     43  H   UNL d   1      19.766  21.192   9.117  0.00  0.00     0.210 HD
ENDBRANCH  38  42
BRANCH  39  44
ATOM     44  O   UNL d   1      17.979  19.763  10.365  0.00  0.00    -0.390 OA
ATOM     45  H   UNL d   1      17.267  19.619  11.019  0.00  0.00     0.210 HD
ENDBRANCH  39  44
ENDBRANCH  34  35
ENDBRANCH  33  34
ENDBRANCH  29  33
ENDBRANCH  28  29
ENDBRANCH  24  28
ENDBRANCH   1  24
TORSDOF 17
ENDMDL
MODEL 5
REMARK VINA RESULT:      -7.3      1.334      1.834
REMARK  17 active torsions:
REMARK  status: ('A' for Active; 'I' for Inactive)
REMARK    1  A    between atoms: C_6  and  N_7 
REMARK    2  A    between atoms: N_10  and  C_11 
REMARK    3  A    between atoms: C_12  and  O_13 
REMARK    4  A    between atoms: C_14  and  O_15 
REMARK    5  A    between atoms: C_17  and  C_18 
REMARK    6  A    between atoms: C_18  and  O_19 
REMARK    7  A    between atoms: P_20  and  O_19 
REMARK    8  A    between atoms: P_20  and  O_22 
REMARK    9  A    between atoms: P_20  and  O_23 
REMARK   10  A    between atoms: P_24  and  O_23 
REMARK   11  A    between atoms: P_24  and  O_26 
REMARK   12  A    between atoms: P_24  and  O_27 
REMARK   13  A    between atoms: O_27  and  C_28 
REMARK   14  A    between atoms: C_28  and  C_36 
REMARK   15  A    between atoms: C_31  and  O_30 
REMARK   16  A    between atoms: O_32  and  C_33 
REMARK   17  A    between atoms: O_34  and  C_35 
ROOT
ATOM      1  O   UNL d   1      21.835  21.659   7.951  0.00  0.00    -0.294 OA
ENDROOT
BRANCH   1   2
ATOM      2  C   UNL d   1      23.075  21.364   7.306  0.00  0.00     0.215 C 
BRANCH   2   3
ATOM      3  C   UNL d   1      22.947  20.465   6.083  0.00  0.00     0.180 C 
ATOM      4  C   UNL d   1      24.112  20.558   5.107  0.00  0.00     0.182 C 
ATOM      5  C   UNL d   1      23.621  21.536   4.053  0.00  0.00     0.198 C 
ATOM      6  C   UNL d   1      22.125  21.221   4.026  0.00  0.00     0.262 C 
ATOM      7  O   UNL d   1      21.749  20.791   5.350  0.00  0.00    -0.353 OA
BRANCH   4   8
ATOM      8  O   UNL d   1      24.352  19.285   4.464  0.00  0.00    -0.390 OA
ATOM      9  H   UNL d   1      24.314  19.403   3.496  0.00  0.00     0.210 HD
ENDBRANCH   4   8
BRANCH   5  10
ATOM     10  O   UNL d   1      24.276  21.301   2.804  0.00  0.00    -0.388 OA
ATOM     11  H   UNL d   1      23.675  20.729   2.287  0.00  0.00     0.210 HD
ENDBRANCH   5  10
BRANCH   6  12
ATOM     12  N   UNL d   1      21.274  22.321   3.634  0.00  0.00    -0.294 N 
ATOM     13  C   UNL d   1      19.972  22.206   3.232  0.00  0.00     0.166 A 
ATOM     14  N   UNL d   1      19.233  21.084   3.137  0.00  0.00    -0.222 NA
ATOM     15  C   UNL d   1      19.571  23.497   2.942  0.00  0.00     0.144 A 
ATOM     16  C   UNL d   1      17.987  21.370   2.710  0.00  0.00     0.237 A 
ATOM     17  N   UNL d   1      17.460  22.571   2.393  0.00  0.00    -0.228 NA
ATOM     18  C   UNL d   1      18.252  23.664   2.488  0.00  0.00     0.135 A 
ATOM     19  N   UNL d   1      20.591  24.394   3.184  0.00  0.00    -0.236 NA
ATOM     20  C   UNL d   1      21.595  23.653   3.612  0.00  0.00     0.214 A 
BRANCH  18  21
ATOM     21  N   UNL d   1      17.709  24.899   2.156  0.00  0.00    -0.285 NA
ATOM     22  H   UNL d   1      17.288  24.902   1.232  0.00  0.00     0.125 HD
ATOM     23  H   UNL d   1      18.334  25.656   2.387  0.00  0.00     0.125 HD
ENDBRANCH  18  21
ENDBRANCH   6  12
ENDBRANCH   2   3
ENDBRANCH   1   2
BRANCH   1  24
ATOM     24  P   UNL d   1      21.072  20.435   8.817  0.00  0.00     0.401 P 
ATOM     25  O   UNL d   1      19.753  20.562   8.017  0.00  0.00    -0.631 OA
BRANCH  24  26
ATOM     26  O   UNL d   1      20.517  21.358  10.052  0.00  0.00    -0.307 OA
ATOM     27  H   UNL d   1      21.272  21.773  10.507  0.00  0.00     0.222 HD
ENDBRANCH  24  26
BRANCH  24  28
ATOM     28  O   UNL d   1      22.547  20.293   9.711  0.00  0.00    -0.195 OA
BRANCH  28  29
ATOM     29  P   UNL d   1      22.536  18.758  10.507  0.00  0.00     0.401 P 
ATOM     30  O   UNL d   1      23.014  18.077   9.202  0.00  0.00    -0.631 OA
BRANCH  29  31
ATOM     31  O   UNL d   1      20.952  18.449  10.180  0.00  0.00    -0.307 OA
ATOM     32  H   UNL d   1      20.943  18.137   9.252  0.00  0.00     0.222 HD
ENDBRANCH  29  31
BRANCH  29  33
ATOM     33  O   UNL d   1      22.001  19.518  11.967  0.00  0.00    -0.294 OA
BRANCH  33  34
ATOM     34  C   UNL d   1      21.155  18.646  12.749  0.00  0.00     0.215 C 
BRANCH  34  35
ATOM     35  C   UNL d   1      19.896  19.341  13.332  0.00  0.00     0.180 C 
ATOM     36  O   UNL d   1      19.312  20.170  12.302  0.00  0.00    -0.349 OA
ATOM     37  C   UNL d   1      18.095  19.591  11.835  0.00  0.00     0.288 C 
ATOM     38  C   UNL d   1      18.041  18.179  12.409  0.00  0.00     0.204 C 
ATOM     39  C   UNL d   1      18.774  18.368  13.724  0.00  0.00     0.182 C 
BRANCH  37  40
ATOM     40  O   UNL d   1      18.118  19.548  10.422  0.00  0.00    -0.369 OA
ATOM     41  H   UNL d   1      18.278  20.465  10.132  0.00  0.00     0.212 HD
ENDBRANCH  37  40
BRANCH  38  42
ATOM     42  O   UNL d   1      16.710  17.701  12.551  0.00  0.00    -0.388 OA
ATOM     43  H   UNL d   1      16.438  17.389  11.662  0.00  0.00     0.210 HD
ENDBRANCH  38  42
BRANCH  39  44
ATOM     44  O   UNL d   1      17.841  18.955  14.653  0.00  0.00    -0.390 OA
ATOM     45  H   UNL d   1      16.936  18.872  14.295  0.00  0.00     0.210 HD
ENDBRANCH  39  44
ENDBRANCH  34  35
ENDBRANCH  33  34
ENDBRANCH  29  33
ENDBRANCH  28  29
ENDBRANCH  24  28
ENDBRANCH   1  24
TORSDOF 17
ENDMDL
MODEL 6
REMARK VINA RESULT:      -7.3      4.255      8.259
REMARK  17 active torsions:
REMARK  status: ('A' for Active; 'I' for Inactive)
REMARK    1  A    between atoms: C_6  and  N_7 
REMARK    2  A    between atoms: N_10  and  C_11 
REMARK    3  A    between atoms: C_12  and  O_13 
REMARK    4  A    between atoms: C_14  and  O_15 
REMARK    5  A    between atoms: C_17  and  C_18 
REMARK    6  A    between atoms: C_18  and  O_19 
REMARK    7  A    between atoms: P_20  and  O_19 
REMARK    8  A    between atoms: P_20  and  O_22 
REMARK    9  A    between atoms: P_20  and  O_23 
REMARK   10  A    between atoms: P_24  and  O_23 
REMARK   11  A    between atoms: P_24  and  O_26 
REMARK   12  A    between atoms: P_24  and  O_27 
REMARK   13  A    between atoms: O_27  and  C_28 
REMARK   14  A    between atoms: C_28  and  C_36 
REMARK   15  A    between atoms: C_31  and  O_30 
REMARK   16  A    between atoms: O_32  and  C_33 
REMARK   17  A    between atoms: O_34  and  C_35 
ROOT
ATOM      1  O   UNL d   1      25.010  19.527  12.940  0.00  0.00    -0.294 OA
ENDROOT
BRANCH   1   2
ATOM      2  C   UNL d   1      25.179  19.756  14.340  0.00  0.00     0.215 C 
BRANCH   2   3
ATOM      3  C   UNL d   1      24.007  20.468  15.004  0.00  0.00     0.180 C 
ATOM      4  C   UNL d   1      23.239  19.617  16.007  0.00  0.00     0.182 C 
ATOM      5  C   UNL d   1      22.061  19.092  15.204  0.00  0.00     0.198 C 
ATOM      6  C   UNL d   1      21.799  20.262  14.254  0.00  0.00     0.262 C 
ATOM      7  O   UNL d   1      23.064  20.910  14.008  0.00  0.00    -0.353 OA
BRANCH   4   8
ATOM      8  O   UNL d   1      22.723  20.429  17.087  0.00  0.00    -0.390 OA
ATOM      9  H   UNL d   1      22.134  19.885  17.643  0.00  0.00     0.210 HD
ENDBRANCH   4   8
BRANCH   5  10
ATOM     10  O   UNL d   1      20.957  18.798  16.063  0.00  0.00    -0.388 OA
ATOM     11  H   UNL d   1      21.304  18.846  16.976  0.00  0.00     0.210 HD
ENDBRANCH   5  10
BRANCH   6  12
ATOM     12  N   UNL d   1      21.204  19.903  12.988  0.00  0.00    -0.294 N 
ATOM     13  C   UNL d   1      20.055  20.440  12.476  0.00  0.00     0.166 A 
ATOM     14  N   UNL d   1      19.275  21.393  13.020  0.00  0.00    -0.222 NA
ATOM     15  C   UNL d   1      19.863  19.790  11.271  0.00  0.00     0.144 A 
ATOM     16  C   UNL d   1      18.230  21.669  12.216  0.00  0.00     0.237 A 
ATOM     17  N   UNL d   1      17.917  21.121  11.023  0.00  0.00    -0.228 NA
ATOM     18  C   UNL d   1      18.724  20.153  10.531  0.00  0.00     0.135 A 
ATOM     19  N   UNL d   1      20.881  18.893  11.028  0.00  0.00    -0.236 NA
ATOM     20  C   UNL d   1      21.677  18.997  12.075  0.00  0.00     0.214 A 
BRANCH  18  21
ATOM     21  N   UNL d   1      18.398  19.586   9.305  0.00  0.00    -0.285 NA
ATOM     22  H   UNL d   1      19.027  19.879   8.563  0.00  0.00     0.125 HD
ATOM     23  H   UNL d   1      17.408  19.633   9.123  0.00  0.00     0.125 HD
ENDBRANCH  18  21
ENDBRANCH   6  12
ENDBRANCH   2   3
ENDBRANCH   1   2
BRANCH   1  24
ATOM     24  P   UNL d   1      26.339  19.731  11.929  0.00  0.00     0.401 P 
ATOM     25  O   UNL d   1      27.081  18.497  12.499  0.00  0.00    -0.631 OA
BRANCH  24  26
ATOM     26  O   UNL d   1      27.171  20.780  12.875  0.00  0.00    -0.307 OA
ATOM     27  H   UNL d   1      26.546  21.253  13.454  0.00  0.00     0.222 HD
ENDBRANCH  24  26
BRANCH  24  28
ATOM     28  O   UNL d   1      25.510  21.110  11.292  0.00  0.00    -0.195 OA
BRANCH  28  29
ATOM     29  P   UNL d   1      25.959  21.274   9.631  0.00  0.00     0.401 P 
ATOM     30  O   UNL d   1      27.305  20.569   9.923  0.00  0.00    -0.631 OA
BRANCH  29  31
ATOM     31  O   UNL d   1      26.614  22.772   9.816  0.00  0.00    -0.307 OA
ATOM     32  H   UNL d   1      25.874  23.393   9.654  0.00  0.00     0.222 HD
ENDBRANCH  29  31
BRANCH  29  33
ATOM     33  O   UNL d   1      24.453  22.061   9.302  0.00  0.00    -0.294 OA
BRANCH  33  34
ATOM     34  C   UNL d   1      24.262  22.288   7.887  0.00  0.00     0.215 C 
BRANCH  34  35
ATOM     35  C   UNL d   1      22.779  22.250   7.434  0.00  0.00     0.180 C 
ATOM     36  O   UNL d   1      22.718  21.664   6.114  0.00  0.00    -0.349 OA
ATOM     37  C   UNL d   1      22.153  20.356   6.182  0.00  0.00     0.288 C 
ATOM     38  C   UNL d   1      22.100  19.984   7.660  0.00  0.00     0.204 C 
ATOM     39  C   UNL d   1      21.888  21.345   8.297  0.00  0.00     0.182 C 
BRANCH  37  40
ATOM     40  O   UNL d   1      22.986  19.457   5.477  0.00  0.00    -0.369 OA
ATOM     41  H   UNL d   1      23.884  19.833   5.528  0.00  0.00     0.212 HD
ENDBRANCH  37  40
BRANCH  38  42
ATOM     42  O   UNL d   1      21.075  19.044   7.947  0.00  0.00    -0.388 OA
ATOM     43  H   UNL d   1      21.194  18.792   8.888  0.00  0.00     0.210 HD
ENDBRANCH  38  42
BRANCH  39  44
ATOM     44  O   UNL d   1      20.489  21.666   8.163  0.00  0.00    -0.390 OA
ATOM     45  H   UNL d   1      19.965  21.071   8.734  0.00  0.00     0.210 HD
ENDBRANCH  39  44
ENDBRANCH  34  35
ENDBRANCH  33  34
ENDBRANCH  29  33
ENDBRANCH  28  29
ENDBRANCH  24  28
ENDBRANCH   1  24
TORSDOF 17
ENDMDL
MODEL 7
REMARK VINA RESULT:      -7.2      4.598      8.823
REMARK  17 active torsions:
REMARK  status: ('A' for Active; 'I' for Inactive)
REMARK    1  A    between atoms: C_6  and  N_7 
REMARK    2  A    between atoms: N_10  and  C_11 
REMARK    3  A    between atoms: C_12  and  O_13 
REMARK    4  A    between atoms: C_14  and  O_15 
REMARK    5  A    between atoms: C_17  and  C_18 
REMARK    6  A    between atoms: C_18  and  O_19 
REMARK    7  A    between atoms: P_20  and  O_19 
REMARK    8  A    between atoms: P_20  and  O_22 
REMARK    9  A    between atoms: P_20  and  O_23 
REMARK   10  A    between atoms: P_24  and  O_23 
REMARK   11  A    between atoms: P_24  and  O_26 
REMARK   12  A    between atoms: P_24  and  O_27 
REMARK   13  A    between atoms: O_27  and  C_28 
REMARK   14  A    between atoms: C_28  and  C_36 
REMARK   15  A    between atoms: C_31  and  O_30 
REMARK   16  A    between atoms: O_32  and  C_33 
REMARK   17  A    between atoms: O_34  and  C_35 
ROOT
ATOM      1  O   UNL d   1      24.262  22.447  10.014  0.00  0.00    -0.294 OA
ENDROOT
BRANCH   1   2
ATOM      2  C   UNL d   1      23.678  21.326  10.678  0.00  0.00     0.215 C 
BRANCH   2   3
ATOM      3  C   UNL d   1      23.319  21.579  12.137  0.00  0.00     0.180 C 
ATOM      4  C   UNL d   1      23.925  20.583  13.118  0.00  0.00     0.182 C 
ATOM      5  C   UNL d   1      22.810  19.576  13.342  0.00  0.00     0.198 C 
ATOM      6  C   UNL d   1      21.573  20.468  13.231  0.00  0.00     0.262 C 
ATOM      7  O   UNL d   1      21.889  21.533  12.312  0.00  0.00    -0.353 OA
BRANCH   4   8
ATOM      8  O   UNL d   1      24.221  21.217  14.383  0.00  0.00    -0.390 OA
ATOM      9  H   UNL d   1      24.272  20.535  15.079  0.00  0.00     0.210 HD
ENDBRANCH   4   8
BRANCH   5  10
ATOM     10  O   UNL d   1      22.948  18.949  14.619  0.00  0.00    -0.388 OA
ATOM     11  H   UNL d   1      23.036  19.674  15.269  0.00  0.00     0.210 HD
ENDBRANCH   5  10
BRANCH   6  12
ATOM     12  N   UNL d   1      20.375  19.801  12.778  0.00  0.00    -0.294 N 
ATOM     13  C   UNL d   1      19.418  19.258  13.591  0.00  0.00     0.166 A 
ATOM     14  N   UNL d   1      19.388  19.247  14.937  0.00  0.00    -0.222 NA
ATOM     15  C   UNL d   1      18.481  18.718  12.730  0.00  0.00     0.144 A 
ATOM     16  C   UNL d   1      18.279  18.624  15.383  0.00  0.00     0.237 A 
ATOM     17  N   UNL d   1      17.287  18.055  14.668  0.00  0.00    -0.228 NA
ATOM     18  C   UNL d   1      17.376  18.077  13.318  0.00  0.00     0.135 A 
ATOM     19  N   UNL d   1      18.832  18.944  11.416  0.00  0.00    -0.236 NA
ATOM     20  C   UNL d   1      19.970  19.610  11.483  0.00  0.00     0.214 A 
BRANCH  18  21
ATOM     21  N   UNL d   1      16.356  17.487  12.582  0.00  0.00    -0.285 NA
ATOM     22  H   UNL d   1      15.453  17.563  13.041  0.00  0.00     0.125 HD
ATOM     23  H   UNL d   1      16.626  16.583  12.228  0.00  0.00     0.125 HD
ENDBRANCH  18  21
ENDBRANCH   6  12
ENDBRANCH   2   3
ENDBRANCH   1   2
BRANCH   1  24
ATOM     24  P   UNL d   1      25.700  22.217   9.170  0.00  0.00     0.401 P 
ATOM     25  O   UNL d   1      26.550  22.111  10.460  0.00  0.00    -0.631 OA
BRANCH  24  26
ATOM     26  O   UNL d   1      26.073  23.797   8.946  0.00  0.00    -0.307 OA
ATOM     27  H   UNL d   1      25.258  24.328   8.987  0.00  0.00     0.222 HD
ENDBRANCH  24  26
BRANCH  24  28
ATOM     28  O   UNL d   1      24.749  22.334   7.729  0.00  0.00    -0.195 OA
BRANCH  28  29
ATOM     29  P   UNL d   1      25.511  21.369   6.514  0.00  0.00     0.401 P 
ATOM     30  O   UNL d   1      26.149  20.487   7.615  0.00  0.00    -0.631 OA
BRANCH  29  31
ATOM     31  O   UNL d   1      26.845  22.326   6.399  0.00  0.00    -0.307 OA
ATOM     32  H   UNL d   1      26.527  23.228   6.612  0.00  0.00     0.222 HD
ENDBRANCH  29  31
BRANCH  29  33
ATOM     33  O   UNL d   1      24.797  22.353   5.283  0.00  0.00    -0.294 OA
BRANCH  33  34
ATOM     34  C   UNL d   1      23.688  23.128   5.790  0.00  0.00     0.215 C 
BRANCH  34  35
ATOM     35  C   UNL d   1      22.315  22.746   5.177  0.00  0.00     0.180 C 
ATOM     36  O   UNL d   1      22.458  21.487   4.482  0.00  0.00    -0.349 OA
ATOM     37  C   UNL d   1      21.800  20.448   5.206  0.00  0.00     0.288 C 
ATOM     38  C   UNL d   1      21.449  21.028   6.572  0.00  0.00     0.204 C 
ATOM     39  C   UNL d   1      21.219  22.487   6.220  0.00  0.00     0.182 C 
BRANCH  37  40
ATOM     40  O   UNL d   1      22.684  19.354   5.347  0.00  0.00    -0.369 OA
ATOM     41  H   UNL d   1      22.212  18.583   4.980  0.00  0.00     0.212 HD
ENDBRANCH  37  40
BRANCH  38  42
ATOM     42  O   UNL d   1      20.326  20.390   7.161  0.00  0.00    -0.388 OA
ATOM     43  H   UNL d   1      19.733  21.109   7.464  0.00  0.00     0.210 HD
ENDBRANCH  38  42
BRANCH  39  44
ATOM     44  O   UNL d   1      19.895  22.587   5.659  0.00  0.00    -0.390 OA
ATOM     45  H   UNL d   1      19.421  21.744   5.799  0.00  0.00     0.210 HD
ENDBRANCH  39  44
ENDBRANCH  34  35
ENDBRANCH  33  34
ENDBRANCH  29  33
ENDBRANCH  28  29
ENDBRANCH  24  28
ENDBRANCH   1  24
TORSDOF 17
ENDMDL
MODEL 8
REMARK VINA RESULT:      -7.2      1.753      2.461
REMARK  17 active torsions:
REMARK  status: ('A' for Active; 'I' for Inactive)
REMARK    1  A    between atoms: C_6  and  N_7 
REMARK    2  A    between atoms: N_10  and  C_11 
REMARK    3  A    between atoms: C_12  and  O_13 
REMARK    4  A    between atoms: C_14  and  O_15 
REMARK    5  A    between atoms: C_17  and  C_18 
REMARK    6  A    between atoms: C_18  and  O_19 
REMARK    7  A    between atoms: P_20  and  O_19 
REMARK    8  A    between atoms: P_20  and  O_22 
REMARK    9  A    between atoms: P_20  and  O_23 
REMARK   10  A    between atoms: P_24  and  O_23 
REMARK   11  A    between atoms: P_24  and  O_26 
REMARK   12  A    between atoms: P_24  and  O_27 
REMARK   13  A    between atoms: O_27  and  C_28 
REMARK   14  A    between atoms: C_28  and  C_36 
REMARK   15  A    between atoms: C_31  and  O_30 
REMARK   16  A    between atoms: O_32  and  C_33 
REMARK   17  A    between atoms: O_34  and  C_35 
ROOT
ATOM      1  O   UNL d   1      20.920  20.953   6.827  0.00  0.00    -0.294 OA
ENDROOT
BRANCH   1   2
ATOM      2  C   UNL d   1      22.312  20.643   6.902  0.00  0.00     0.215 C 
BRANCH   2   3
ATOM      3  C   UNL d   1      23.149  21.245   5.780  0.00  0.00     0.180 C 
ATOM      4  C   UNL d   1      23.744  22.610   6.101  0.00  0.00     0.182 C 
ATOM      5  C   UNL d   1      22.764  23.585   5.471  0.00  0.00     0.198 C 
ATOM      6  C   UNL d   1      22.299  22.796   4.247  0.00  0.00     0.262 C 
ATOM      7  O   UNL d   1      22.350  21.396   4.590  0.00  0.00    -0.353 OA
BRANCH   4   8
ATOM      8  O   UNL d   1      25.027  22.780   5.455  0.00  0.00    -0.390 OA
ATOM      9  H   UNL d   1      24.906  22.746   4.487  0.00  0.00     0.210 HD
ENDBRANCH   4   8
BRANCH   5  10
ATOM     10  O   UNL d   1      23.418  24.814   5.142  0.00  0.00    -0.388 OA
ATOM     11  H   UNL d   1      23.967  25.045   5.918  0.00  0.00     0.210 HD
ENDBRANCH   5  10
BRANCH   6  12
ATOM     12  N   UNL d   1      20.969  23.113   3.781  0.00  0.00    -0.294 N 
ATOM     13  C   UNL d   1      20.651  24.156   2.955  0.00  0.00     0.166 A 
ATOM     14  N   UNL d   1      21.484  25.062   2.410  0.00  0.00    -0.222 NA
ATOM     15  C   UNL d   1      19.279  24.081   2.797  0.00  0.00     0.144 A 
ATOM     16  C   UNL d   1      20.802  25.935   1.643  0.00  0.00     0.237 A 
ATOM     17  N   UNL d   1      19.476  25.984   1.398  0.00  0.00    -0.228 NA
ATOM     18  C   UNL d   1      18.681  25.061   1.987  0.00  0.00     0.135 A 
ATOM     19  N   UNL d   1      18.763  23.003   3.486  0.00  0.00    -0.236 NA
ATOM     20  C   UNL d   1      19.809  22.436   4.055  0.00  0.00     0.214 A 
BRANCH  18  21
ATOM     21  N   UNL d   1      17.315  25.116   1.738  0.00  0.00    -0.285 NA
ATOM     22  H   UNL d   1      16.817  25.672   2.426  0.00  0.00     0.125 HD
ATOM     23  H   UNL d   1      16.940  24.208   1.511  0.00  0.00     0.125 HD
ENDBRANCH  18  21
ENDBRANCH   6  12
ENDBRANCH   2   3
ENDBRANCH   1   2
BRANCH   1  24
ATOM     24  P   UNL d   1      20.204  21.740   8.131  0.00  0.00     0.401 P 
ATOM     25  O   UNL d   1      20.255  23.126   7.444  0.00  0.00    -0.631 OA
BRANCH  24  26
ATOM     26  O   UNL d   1      21.570  22.017   8.992  0.00  0.00    -0.307 OA
ATOM     27  H   UNL d   1      21.983  22.843   8.681  0.00  0.00     0.222 HD
ENDBRANCH  24  26
BRANCH  24  28
ATOM     28  O   UNL d   1      20.147  20.191   8.899  0.00  0.00    -0.195 OA
BRANCH  28  29
ATOM     29  P   UNL d   1      19.095  20.318  10.266  0.00  0.00     0.401 P 
ATOM     30  O   UNL d   1      17.866  20.262   9.327  0.00  0.00    -0.631 OA
BRANCH  29  31
ATOM     31  O   UNL d   1      19.102  21.964  10.287  0.00  0.00    -0.307 OA
ATOM     32  H   UNL d   1      18.307  22.212  10.801  0.00  0.00     0.222 HD
ENDBRANCH  29  31
BRANCH  29  33
ATOM     33  O   UNL d   1      20.468  20.380  11.318  0.00  0.00    -0.294 OA
BRANCH  33  34
ATOM     34  C   UNL d   1      20.165  19.854  12.629  0.00  0.00     0.215 C 
BRANCH  34  35
ATOM     35  C   UNL d   1      19.149  18.682  12.624  0.00  0.00     0.180 C 
ATOM     36  O   UNL d   1      19.741  17.559  13.314  0.00  0.00    -0.349 OA
ATOM     37  C   UNL d   1      19.109  17.369  14.578  0.00  0.00     0.288 C 
ATOM     38  C   UNL d   1      18.251  18.606  14.822  0.00  0.00     0.204 C 
ATOM     39  C   UNL d   1      17.859  18.975  13.403  0.00  0.00     0.182 C 
BRANCH  37  40
ATOM     40  O   UNL d   1      20.104  17.255  15.577  0.00  0.00    -0.369 OA
ATOM     41  H   UNL d   1      20.234  16.298  15.713  0.00  0.00     0.212 HD
ENDBRANCH  37  40
BRANCH  38  42
ATOM     42  O   UNL d   1      17.148  18.342  15.678  0.00  0.00    -0.388 OA
ATOM     43  H   UNL d   1      16.631  19.174  15.718  0.00  0.00     0.210 HD
ENDBRANCH  38  42
BRANCH  39  44
ATOM     44  O   UNL d   1      16.778  18.102  13.018  0.00  0.00    -0.390 OA
ATOM     45  H   UNL d   1      16.085  18.124  13.708  0.00  0.00     0.210 HD
ENDBRANCH  39  44
ENDBRANCH  34  35
ENDBRANCH  33  34
ENDBRANCH  29  33
ENDBRANCH  28  29
ENDBRANCH  24  28
ENDBRANCH   1  24
TORSDOF 17
ENDMDL
MODEL 9
REMARK VINA RESULT:      -7.2      4.642      9.919
REMARK  17 active torsions:
REMARK  status: ('A' for Active; 'I' for Inactive)
REMARK    1  A    between atoms: C_6  and  N_7 
REMARK    2  A    between atoms: N_10  and  C_11 
REMARK    3  A    between atoms: C_12  and  O_13 
REMARK    4  A    between atoms: C_14  and  O_15 
REMARK    5  A    between atoms: C_17  and  C_18 
REMARK    6  A    between atoms: C_18  and  O_19 
REMARK    7  A    between atoms: P_20  and  O_19 
REMARK    8  A    between atoms: P_20  and  O_22 
REMARK    9  A    between atoms: P_20  and  O_23 
REMARK   10  A    between atoms: P_24  and  O_23 
REMARK   11  A    between atoms: P_24  and  O_26 
REMARK   12  A    between atoms: P_24  and  O_27 
REMARK   13  A    between atoms: O_27  and  C_28 
REMARK   14  A    between atoms: C_28  and  C_36 
REMARK   15  A    between atoms: C_31  and  O_30 
REMARK   16  A    between atoms: O_32  and  C_33 
REMARK   17  A    between atoms: O_34  and  C_35 
ROOT
ATOM      1  O   UNL d   1      20.002  20.769   7.167  0.00  0.00    -0.294 OA
ENDROOT
BRANCH   1   2
ATOM      2  C   UNL d   1      20.221  21.165   8.522  0.00  0.00     0.215 C 
BRANCH   2   3
ATOM      3  C   UNL d   1      21.337  20.403   9.225  0.00  0.00     0.180 C 
ATOM      4  C   UNL d   1      21.337  18.902   8.964  0.00  0.00     0.182 C 
ATOM      5  C   UNL d   1      20.610  18.328  10.169  0.00  0.00     0.198 C 
ATOM      6  C   UNL d   1      21.038  19.301  11.268  0.00  0.00     0.262 C 
ATOM      7  O   UNL d   1      21.244  20.588  10.651  0.00  0.00    -0.353 OA
BRANCH   4   8
ATOM      8  O   UNL d   1      22.685  18.377   8.959  0.00  0.00    -0.390 OA
ATOM      9  H   UNL d   1      22.911  18.066   9.855  0.00  0.00     0.210 HD
ENDBRANCH   4   8
BRANCH   5  10
ATOM     10  O   UNL d   1      21.021  16.980  10.410  0.00  0.00    -0.388 OA
ATOM     11  H   UNL d   1      20.957  16.519   9.549  0.00  0.00     0.210 HD
ENDBRANCH   5  10
BRANCH   6  12
ATOM     12  N   UNL d   1      20.098  19.451  12.355  0.00  0.00    -0.294 N 
ATOM     13  C   UNL d   1      19.950  18.576  13.396  0.00  0.00     0.166 A 
ATOM     14  N   UNL d   1      20.638  17.441  13.625  0.00  0.00    -0.222 NA
ATOM     15  C   UNL d   1      18.935  19.109  14.170  0.00  0.00     0.144 A 
ATOM     16  C   UNL d   1      20.213  16.849  14.759  0.00  0.00     0.237 A 
ATOM     17  N   UNL d   1      19.244  17.250  15.607  0.00  0.00    -0.228 NA
ATOM     18  C   UNL d   1      18.570  18.388  15.319  0.00  0.00     0.135 A 
ATOM     19  N   UNL d   1      18.484  20.298  13.637  0.00  0.00    -0.236 NA
ATOM     20  C   UNL d   1      19.214  20.480  12.553  0.00  0.00     0.214 A 
BRANCH  18  21
ATOM     21  N   UNL d   1      17.568  18.797  16.191  0.00  0.00    -0.285 NA
ATOM     22  H   UNL d   1      17.481  18.184  16.995  0.00  0.00     0.125 HD
ATOM     23  H   UNL d   1      16.725  19.047  15.699  0.00  0.00     0.125 HD
ENDBRANCH  18  21
ENDBRANCH   6  12
ENDBRANCH   2   3
ENDBRANCH   1   2
BRANCH   1  24
ATOM     24  P   UNL d   1      20.897  21.524   5.958  0.00  0.00     0.401 P 
ATOM     25  O   UNL d   1      20.036  22.811   5.994  0.00  0.00    -0.631 OA
BRANCH  24  26
ATOM     26  O   UNL d   1      20.086  20.909   4.674  0.00  0.00    -0.307 OA
ATOM     27  H   UNL d   1      19.955  19.953   4.805  0.00  0.00     0.222 HD
ENDBRANCH  24  26
BRANCH  24  28
ATOM     28  O   UNL d   1      21.859  20.086   5.919  0.00  0.00    -0.195 OA
BRANCH  28  29
ATOM     29  P   UNL d   1      23.480  20.546   5.531  0.00  0.00     0.401 P 
ATOM     30  O   UNL d   1      23.919  20.221   6.978  0.00  0.00    -0.631 OA
BRANCH  29  31
ATOM     31  O   UNL d   1      23.252  22.140   5.875  0.00  0.00    -0.307 OA
ATOM     32  H   UNL d   1      23.830  22.619   5.247  0.00  0.00     0.222 HD
ENDBRANCH  29  31
BRANCH  29  33
ATOM     33  O   UNL d   1      22.989  20.910   3.911  0.00  0.00    -0.294 OA
BRANCH  33  34
ATOM     34  C   UNL d   1      24.031  21.587   3.173  0.00  0.00     0.215 C 
BRANCH  34  35
ATOM     35  C   UNL d   1      23.552  22.856   2.421  0.00  0.00     0.180 C 
ATOM     36  O   UNL d   1      22.776  23.664   3.334  0.00  0.00    -0.349 OA
ATOM     37  C   UNL d   1      23.508  24.832   3.702  0.00  0.00     0.288 C 
ATOM     38  C   UNL d   1      24.935  24.622   3.207  0.00  0.00     0.204 C 
ATOM     39  C   UNL d   1      24.694  23.778   1.969  0.00  0.00     0.182 C 
BRANCH  37  40
ATOM     40  O   UNL d   1      23.489  24.964   5.110  0.00  0.00    -0.369 OA
ATOM     41  H   UNL d   1      23.268  25.897   5.285  0.00  0.00     0.212 HD
ENDBRANCH  37  40
BRANCH  38  42
ATOM     42  O   UNL d   1      25.608  25.847   2.952  0.00  0.00    -0.388 OA
ATOM     43  H   UNL d   1      26.530  25.718   3.258  0.00  0.00     0.210 HD
ENDBRANCH  38  42
BRANCH  39  44
ATOM     44  O   UNL d   1      24.289  24.674   0.914  0.00  0.00    -0.390 OA
ATOM     45  H   UNL d   1      23.319  24.623   0.804  0.00  0.00     0.210 HD
ENDBRANCH  39  44
ENDBRANCH  34  35
ENDBRANCH  33  34
ENDBRANCH  29  33
ENDBRANCH  28  29
ENDBRANCH  24  28
ENDBRANCH   1  24
TORSDOF 17
ENDMDL
