@<TRIPOS>MOLECULE
APR
 59 62 0 0 0
SMALL
GASTEIGER

@<TRIPOS>ATOM
      1 N           4.5806    9.7888   -9.6550 N.ar    1  UNL1       -0.2188
      2 C           4.7091   10.7569   -8.7235 C.ar    1  UNL1        0.1205
      3 N           4.1937   10.8013   -7.4792 N.ar    1  UNL1       -0.2159
      4 C           3.4786    9.6900   -7.2210 C.ar    1  UNL1        0.1674
      5 C           3.2591    8.6211   -8.0709 C.ar    1  UNL1        0.1473
      6 C           3.8352    8.7010   -9.3501 C.ar    1  UNL1        0.1472
      7 N           3.6990    7.7074  -10.3116 N.pl3   1  UNL1       -0.3413
      8 N           2.4993    7.6498   -7.4528 N.ar    1  UNL1       -0.2306
      9 C           2.2605    8.1280   -6.2465 C.ar    1  UNL1        0.1004
     10 N           2.8136    9.3695   -6.0700 N.ar    1  UNL1       -0.2855
     11 C           2.7417   10.1999   -4.8901 C.3     1  UNL1        0.1667
     12 C           1.3304   10.6171   -4.4749 C.3     1  UNL1        0.1285
     13 O           0.8949   11.8358   -5.0825 O.3     1  UNL1       -0.3847
     14 C           1.5013   10.7980   -2.9766 C.3     1  UNL1        0.1135
     15 O           2.0079   12.1310   -2.7376 O.3     1  UNL1       -0.3864
     16 O           3.3248    9.4845   -3.7812 O.3     1  UNL1       -0.3456
     17 C           2.5378    9.7461   -2.6032 C.3     1  UNL1        0.1134
     18 C           1.9515    8.4473   -2.0638 C.3     1  UNL1        0.0879
     19 O           1.0352    7.8037   -2.9505 O.3     1  UNL1       -0.2837
     20 P           0.2861    6.3868   -2.4365 P.3     1  UNL1        0.4835
     21 O           0.9617    6.4227   -1.0437 O.2     1  UNL1       -0.2269
     22 O           1.3845    5.3315   -3.0412 O.3     1  UNL1       -0.3022
     23 O          -0.4688    6.3468   -3.9926 O.3     1  UNL1       -0.1861
     24 P          -2.1638    6.6066   -3.7638 P.3     1  UNL1        0.4835
     25 O          -2.4557    5.1913   -4.3197 O.2     1  UNL1       -0.2269
     26 O          -2.3891    7.3136   -5.2333 O.3     1  UNL1       -0.3022
     27 O          -1.8376    8.1880   -3.1427 O.3     1  UNL1       -0.2837
     28 C          -3.0059    8.7759   -2.5283 C.3     1  UNL1        0.0879
     29 O          -4.6702    7.6289   -3.8815 O.3     1  UNL1       -0.3407
     30 O          -5.8444    6.0589   -2.6546 O.3     1  UNL1       -0.3649
     31 C          -5.9195    7.3357   -3.2570 C.3     1  UNL1        0.1854
     32 O          -7.5106    8.6299   -1.9174 O.3     1  UNL1       -0.3841
     33 C          -6.1350    8.4120   -2.1980 C.3     1  UNL1        0.1339
     34 O          -6.3461   10.1486   -3.8159 O.3     1  UNL1       -0.3864
     35 C          -5.4395    9.5985   -2.8395 C.3     1  UNL1        0.1141
     36 C          -4.2121    8.9422   -3.4901 C.3     1  UNL1        0.1139
     37 H           5.3128   11.6114   -9.0164 H       1  UNL1        0.1048
     38 H           3.4461    6.8106   -9.9085 H       1  UNL1        0.1438
     39 H           4.4580    7.7237  -10.9757 H       1  UNL1        0.1438
     40 H           1.6989    7.6186   -5.4739 H       1  UNL1        0.1030
     41 H           3.3649   11.0854   -5.0613 H       1  UNL1        0.0866
     42 H           0.5930    9.8376   -4.6893 H       1  UNL1        0.0665
     43 H           1.1584   12.5529   -4.4713 H       1  UNL1        0.2101
     44 H           0.5614   10.7199   -2.4245 H       1  UNL1        0.0647
     45 H           2.9838   12.1112   -2.7556 H       1  UNL1        0.2100
     46 H           3.2272   10.1381   -1.8458 H       1  UNL1        0.0647
     47 H           2.7769    7.7556   -1.8630 H       1  UNL1        0.0592
     48 H           1.4296    8.6904   -1.1302 H       1  UNL1        0.0592
     49 H           1.7799    4.8257   -2.3085 H       1  UNL1        0.2220
     50 H          -2.4699    6.5682   -5.8624 H       1  UNL1        0.2220
     51 H          -3.2744    8.1380   -1.6804 H       1  UNL1        0.0592
     52 H          -2.7015    9.7532   -2.1388 H       1  UNL1        0.0592
     53 H          -6.6779    5.9501   -2.1609 H       1  UNL1        0.2126
     54 H          -6.7100    7.3250   -4.0191 H       1  UNL1        0.0935
     55 H          -7.8197    9.2921   -2.5709 H       1  UNL1        0.2101
     56 H          -5.6437    8.1227   -1.2635 H       1  UNL1        0.0671
     57 H          -6.0652    9.8712   -4.7094 H       1  UNL1        0.2100
     58 H          -5.2070   10.3969   -2.1313 H       1  UNL1        0.0648
     59 H          -3.8912    9.4677   -4.3909 H       1  UNL1        0.0647
@<TRIPOS>BOND
     1     1     2   ar
     2     1     6   ar
     3     2     3   ar
     4     2    37    1
     5     3     4   ar
     6     4     5   ar
     7     4    10   ar
     8     5     6   ar
     9     5     8   ar
    10     6     7    1
    11     7    38    1
    12     7    39    1
    13     8     9   ar
    14     9    10   ar
    15     9    40    1
    16    10    11    1
    17    11    12    1
    18    11    16    1
    19    11    41    1
    20    12    13    1
    21    12    14    1
    22    12    42    1
    23    13    43    1
    24    14    15    1
    25    14    17    1
    26    14    44    1
    27    15    45    1
    28    16    17    1
    29    18    19    1
    30    18    47    1
    31    18    48    1
    32    20    22    1
    33    20    23    1
    34    22    49    1
    35    24    26    1
    36    24    27    1
    37    26    50    1
    38    27    28    1
    39    28    36    1
    40    28    51    1
    41    28    52    1
    42    29    31    1
    43    29    36    1
    44    30    53    1
    45    31    33    1
    46    32    33    1
    47    32    55    1
    48    33    35    1
    49    33    56    1
    50    34    35    1
    51    34    57    1
    52    35    36    1
    53    35    58    1
    54    36    59    1
    55    17    46    1
    56    17    18    1
    57    20    21    2
    58    20    19    1
    59    24    25    2
    60    24    23    1
    61    31    54    1
    62    31    30    1
