REMARK  17 active torsions:
REMARK  status: ('A' for Active; 'I' for Inactive)
REMARK    1  A    between atoms: C_6  and  N_7 
REMARK    2  A    between atoms: N_10  and  C_11 
REMARK    3  A    between atoms: C_12  and  O_13 
REMARK    4  A    between atoms: C_14  and  O_15 
REMARK    5  A    between atoms: C_17  and  C_18 
REMARK    6  A    between atoms: C_18  and  O_19 
REMARK    7  A    between atoms: P_20  and  O_19 
REMARK    8  A    between atoms: P_20  and  O_22 
REMARK    9  A    between atoms: P_20  and  O_23 
REMARK   10  A    between atoms: P_24  and  O_23 
REMARK   11  A    between atoms: P_24  and  O_26 
REMARK   12  A    between atoms: P_24  and  O_27 
REMARK   13  A    between atoms: O_27  and  C_28 
REMARK   14  A    between atoms: C_28  and  C_36 
REMARK   15  A    between atoms: C_31  and  O_30 
REMARK   16  A    between atoms: O_32  and  C_33 
REMARK   17  A    between atoms: O_34  and  C_35 
ROOT
ATOM      1  O   UNL d   1       1.035   7.804  -2.950  0.00  0.00    -0.294 OA
ENDROOT
BRANCH   1   2
ATOM      2  C   UNL d   1       1.952   8.447  -2.064  0.00  0.00     0.215 C 
BRANCH   2   3
ATOM      3  C   UNL d   1       2.538   9.746  -2.603  0.00  0.00     0.180 C 
ATOM      4  C   UNL d   1       1.507  10.827  -2.901  0.00  0.00     0.182 C 
ATOM      5  C   UNL d   1       1.258  10.684  -4.393  0.00  0.00     0.198 C 
ATOM      6  C   UNL d   1       2.638  10.248  -4.887  0.00  0.00     0.262 C 
ATOM      7  O   UNL d   1       3.260   9.496  -3.825  0.00  0.00    -0.353 OA
BRANCH   4   8
ATOM      8  O   UNL d   1       2.053  12.144  -2.659  0.00  0.00    -0.390 OA
ATOM      9  H   UNL d   1       3.026  12.105  -2.726  0.00  0.00     0.210 HD
ENDBRANCH   4   8
BRANCH   5  10
ATOM     10  O   UNL d   1       0.819  11.925  -4.951  0.00  0.00    -0.388 OA
ATOM     11  H   UNL d   1       1.127  12.622  -4.338  0.00  0.00     0.210 HD
ENDBRANCH   5  10
BRANCH   6  12
ATOM     12  N   UNL d   1       2.634   9.444  -6.087  0.00  0.00    -0.294 N 
ATOM     13  C   UNL d   1       2.002   8.239  -6.227  0.00  0.00     0.166 A 
ATOM     14  N   UNL d   1       1.264   7.582  -5.312  0.00  0.00    -0.222 NA
ATOM     15  C   UNL d   1       2.284   7.835  -7.519  0.00  0.00     0.144 A 
ATOM     16  C   UNL d   1       0.796   6.425  -5.820  0.00  0.00     0.237 A 
ATOM     17  N   UNL d   1       0.987   5.907  -7.051  0.00  0.00    -0.228 NA
ATOM     18  C   UNL d   1       1.753   6.599  -7.926  0.00  0.00     0.135 A 
ATOM     19  N   UNL d   1       3.049   8.778  -8.173  0.00  0.00    -0.236 NA
ATOM     20  C   UNL d   1       3.229   9.738  -7.286  0.00  0.00     0.214 A 
BRANCH  18  21
ATOM     21  N   UNL d   1       1.953   6.062  -9.192  0.00  0.00    -0.285 NA
ATOM     22  H   UNL d   1       2.218   6.766  -9.874  0.00  0.00     0.125 HD
ATOM     23  H   UNL d   1       1.219   5.419  -9.445  0.00  0.00     0.125 HD
ENDBRANCH  18  21
ENDBRANCH   6  12
ENDBRANCH   2   3
ENDBRANCH   1   2
BRANCH   1  24
ATOM     24  P   UNL d   1       0.312   6.369  -2.450  0.00  0.00     0.401 P 
ATOM     25  O   UNL d   1       0.972   6.414  -1.050  0.00  0.00    -0.631 OA
BRANCH  24  26
ATOM     26  O   UNL d   1       1.439   5.340  -3.047  0.00  0.00    -0.307 OA
ATOM     27  H   UNL d   1       1.838   4.840  -2.312  0.00  0.00     0.222 HD
ENDBRANCH  24  26
BRANCH  24  28
ATOM     28  O   UNL d   1      -0.426   6.319  -4.014  0.00  0.00    -0.195 OA
BRANCH  28  29
ATOM     29  P   UNL d   1      -1.812   7.352  -3.977  0.00  0.00     0.401 P 
ATOM     30  O   UNL d   1      -0.897   8.571  -3.708  0.00  0.00    -0.631 OA
BRANCH  29  31
ATOM     31  O   UNL d   1      -2.107   7.122  -2.374  0.00  0.00    -0.307 OA
ATOM     32  H   UNL d   1      -1.495   7.733  -1.915  0.00  0.00     0.222 HD
ENDBRANCH  29  31
BRANCH  29  33
ATOM     33  O   UNL d   1      -2.836   5.990  -4.278  0.00  0.00    -0.294 OA
BRANCH  33  34
ATOM     34  C   UNL d   1      -2.938   5.695  -5.689  0.00  0.00     0.215 C 
BRANCH  34  35
ATOM     35  C   UNL d   1      -3.858   4.491  -6.020  0.00  0.00     0.180 C 
ATOM     36  O   UNL d   1      -3.859   4.295  -7.452  0.00  0.00    -0.349 OA
ATOM     37  C   UNL d   1      -3.128   3.117  -7.788  0.00  0.00     0.288 C 
ATOM     38  C   UNL d   1      -2.394   2.688  -6.522  0.00  0.00     0.204 C 
ATOM     39  C   UNL d   1      -3.362   3.154  -5.450  0.00  0.00     0.182 C 
BRANCH  37  40
ATOM     40  O   UNL d   1      -2.204   3.425  -8.813  0.00  0.00    -0.369 OA
ATOM     41  H   UNL d   1      -1.666   2.621  -8.935  0.00  0.00     0.212 HD
ENDBRANCH  37  40
BRANCH  38  42
ATOM     42  O   UNL d   1      -2.127   1.293  -6.495  0.00  0.00    -0.388 OA
ATOM     43  H   UNL d   1      -2.923   0.872  -6.107  0.00  0.00     0.210 HD
ENDBRANCH  38  42
BRANCH  39  44
ATOM     44  O   UNL d   1      -4.413   2.171  -5.367  0.00  0.00    -0.390 OA
ATOM     45  H   UNL d   1      -5.208   2.510  -5.823  0.00  0.00     0.210 HD
ENDBRANCH  39  44
ENDBRANCH  34  35
ENDBRANCH  33  34
ENDBRANCH  29  33
ENDBRANCH  28  29
ENDBRANCH  24  28
ENDBRANCH   1  24
TORSDOF 17
