@<TRIPOS>MOLECULE
APR
 59 62 0 0 0
SMALL
GASTEIGER

@<TRIPOS>ATOM
      1 N           0.9872    5.9068   -7.0510 N.pl3   1  UNL11      -0.2188
      2 C           0.7962    6.4252   -5.8196 C.3     1  UNL11       0.1205
      3 N           1.2643    7.5823   -5.3118 N.pl3   1  UNL11      -0.2159
      4 C           2.0020    8.2391   -6.2270 C.3     1  UNL11       0.1674
      5 C           2.2838    7.8351   -7.5194 C.3     1  UNL11       0.1473
      6 C           1.7527    6.5994   -7.9263 C.3     1  UNL11       0.1472
      7 N           1.9533    6.0623   -9.1918 N.pl3   1  UNL11      -0.3413
      8 N           3.0489    8.7785   -8.1733 N.pl3   1  UNL11      -0.2306
      9 C           3.2292    9.7378   -7.2857 C.3     1  UNL11       0.1004
     10 N           2.6337    9.4437   -6.0869 N.pl3   1  UNL11      -0.2855
     11 C           2.6379   10.2481   -4.8869 C.3     1  UNL11       0.1667
     12 C           1.2580   10.6839   -4.3927 C.3     1  UNL11       0.1285
     13 O           0.8189   11.9248   -4.9509 O.3     1  UNL11      -0.3847
     14 C           1.5066   10.8269   -2.9012 C.3     1  UNL11       0.1135
     15 O           2.0526   12.1436   -2.6586 O.3     1  UNL11      -0.3864
     16 O           3.2598    9.4959   -3.8245 O.3     1  UNL11      -0.3456
     17 C           2.5378    9.7461   -2.6032 C.3     1  UNL11       0.1134
     18 C           1.9515    8.4473   -2.0638 C.3     1  UNL11       0.0879
     19 O           1.0352    7.8037   -2.9505 O.3     1  UNL11      -0.2837
     20 P           0.3117    6.3688   -2.4499 P.3     1  UNL11       0.4835
     21 O           0.9716    6.4138   -1.0498 O.2     1  UNL11      -0.2269
     22 O           1.4391    5.3400   -3.0468 O.3     1  UNL11      -0.3022
     23 O          -0.4257    6.3187   -4.0141 O.3     1  UNL11      -0.1861
     24 P          -1.8125    7.3523   -3.9772 P.3     1  UNL11       0.4835
     25 O          -0.8967    8.5714   -3.7080 O.2     1  UNL11      -0.2269
     26 O          -2.1066    7.1224   -2.3739 O.3     1  UNL11      -0.3022
     27 O          -2.8357    5.9902   -4.2781 O.3     1  UNL11      -0.2837
     28 C          -2.9376    5.6954   -5.6890 C.3     1  UNL11       0.0879
     29 O          -3.8588    4.2951   -7.4518 O.3     1  UNL11      -0.3407
     30 O          -2.2043    3.4250   -8.8135 O.3     1  UNL11      -0.3649
     31 C          -3.1278    3.1166   -7.7885 C.3     1  UNL11       0.1854
     32 O          -2.1272    1.2930   -6.4945 O.3     1  UNL11      -0.3841
     33 C          -2.3937    2.6882   -6.5220 C.3     1  UNL11       0.1339
     34 O          -4.4131    2.1714   -5.3674 O.3     1  UNL11      -0.3864
     35 C          -3.3616    3.1539   -5.4499 C.3     1  UNL11       0.1141
     36 C          -3.8584    4.4913   -6.0202 C.3     1  UNL11       0.1139
     37 H           0.1787    5.8309   -5.1519 H       1  UNL11       0.1048
     38 H           2.2176    6.7663   -9.8738 H       1  UNL11       0.1438
     39 H           1.2189    5.4190   -9.4452 H       1  UNL11       0.1438
     40 H           3.7770   10.6548   -7.4615 H       1  UNL11       0.1030
     41 H           3.2705   11.1246   -5.0696 H       1  UNL11       0.0866
     42 H           0.4945    9.9245   -4.5870 H       1  UNL11       0.0665
     43 H           1.1275   12.6222   -4.3381 H       1  UNL11       0.2101
     44 H           0.5938   10.7551   -2.3047 H       1  UNL11       0.0647
     45 H           3.0258   12.1046   -2.7258 H       1  UNL11       0.2100
     46 H           3.2720   10.1067   -1.8728 H       1  UNL11       0.0647
     47 H           2.7769    7.7556   -1.8630 H       1  UNL11       0.0592
     48 H           1.4296    8.6904   -1.1302 H       1  UNL11       0.0592
     49 H           1.8376    4.8400   -2.3119 H       1  UNL11       0.2220
     50 H          -1.4947    7.7329   -1.9148 H       1  UNL11       0.2220
     51 H          -3.3010    6.6044   -6.1785 H       1  UNL11       0.0592
     52 H          -1.9212    5.4973   -6.0457 H       1  UNL11       0.0592
     53 H          -1.6661    2.6213   -8.9351 H       1  UNL11       0.2126
     54 H          -3.8254    2.3517   -8.1547 H       1  UNL11       0.0935
     55 H          -2.9231    0.8719   -6.1067 H       1  UNL11       0.2101
     56 H          -1.4365    3.2141   -6.4469 H       1  UNL11       0.0671
     57 H          -5.2080    2.5105   -5.8226 H       1  UNL11       0.2100
     58 H          -2.9074    3.2223   -4.4589 H       1  UNL11       0.0648
     59 H          -4.8805    4.7176   -5.7125 H       1  UNL11       0.0647
@<TRIPOS>BOND
     1     1     2   ar
     2     1     6   ar
     3     2     3   ar
     4     2    37    1
     5     3     4   ar
     6     4     5   ar
     7     4    10   ar
     8     5     6   ar
     9     5     8   ar
    10     6     7    1
    11     7    38    1
    12     7    39    1
    13     8     9   ar
    14     9    10   ar
    15     9    40    1
    16    10    11    1
    17    11    12    1
    18    11    16    1
    19    11    41    1
    20    12    13    1
    21    12    14    1
    22    12    42    1
    23    13    43    1
    24    14    15    1
    25    14    17    1
    26    14    44    1
    27    15    45    1
    28    16    17    1
    29    18    19    1
    30    18    47    1
    31    18    48    1
    32    20    22    1
    33    20    23    1
    34    22    49    1
    35    24    26    1
    36    24    27    1
    37    26    50    1
    38    27    28    1
    39    28    36    1
    40    28    51    1
    41    28    52    1
    42    29    31    1
    43    29    36    1
    44    30    53    1
    45    31    33    1
    46    32    33    1
    47    32    55    1
    48    33    35    1
    49    33    56    1
    50    34    35    1
    51    34    57    1
    52    35    36    1
    53    35    58    1
    54    36    59    1
    55    17    46    1
    56    17    18    1
    57    20    21    2
    58    20    19    1
    59    24    25    2
    60    24    23    1
    61    31    54    1
    62    31    30    1
