MODEL 1
REMARK VINA RESULT:      -4.0      0.000      0.000
REMARK  2 active torsions:
REMARK  status: ('A' for Active; 'I' for Inactive)
REMARK    1  A    between atoms: C_1  and  O_3 
REMARK    2  A    between atoms: C_1  and  C_4 
ROOT
ATOM      1  C   UNL d   1       7.681 -10.796 -27.579  0.00  0.00     0.213 C 
ATOM      2  O   UNL d   1       8.671 -11.278 -27.062  0.00  0.00    -0.644 OA
ENDROOT
BRANCH   1   3
ATOM      3  O   UNL d   1       7.682  -9.588 -28.150  0.00  0.00    -0.771 OA
ATOM      4  H   UNL d   1       8.223  -9.678 -28.960  0.00  0.00     0.168 HD
ENDBRANCH   1   3
BRANCH   1   5
ATOM      5  C   UNL d   1       6.321 -11.505 -27.641  0.00  0.00     0.218 C 
ATOM      6  O   UNL d   1       5.751 -11.696 -28.707  0.00  0.00    -0.286 OA
ATOM      7  C   UNL d   1       5.757 -11.936 -26.319  0.00  0.00     0.103 C 
ENDBRANCH   1   5
TORSDOF 2
ENDMDL
MODEL 2
REMARK VINA RESULT:      -4.0      1.121      2.566
REMARK  2 active torsions:
REMARK  status: ('A' for Active; 'I' for Inactive)
REMARK    1  A    between atoms: C_1  and  O_3 
REMARK    2  A    between atoms: C_1  and  C_4 
ROOT
ATOM      1  C   UNL d   1       6.140 -11.677 -27.611  0.00  0.00     0.213 C 
ATOM      2  O   UNL d   1       5.467 -12.084 -26.684  0.00  0.00    -0.644 OA
ENDROOT
BRANCH   1   3
ATOM      3  O   UNL d   1       5.729 -11.734 -28.881  0.00  0.00    -0.771 OA
ATOM      4  H   UNL d   1       4.793 -11.449 -28.869  0.00  0.00     0.168 HD
ENDBRANCH   1   3
BRANCH   1   5
ATOM      5  C   UNL d   1       7.534 -11.055 -27.443  0.00  0.00     0.218 C 
ATOM      6  O   UNL d   1       7.883 -10.088 -28.107  0.00  0.00    -0.286 OA
ATOM      7  C   UNL d   1       8.415 -11.711 -26.421  0.00  0.00     0.103 C 
ENDBRANCH   1   5
TORSDOF 2
ENDMDL
MODEL 3
REMARK VINA RESULT:      -3.9      1.477      2.025
REMARK  2 active torsions:
REMARK  status: ('A' for Active; 'I' for Inactive)
REMARK    1  A    between atoms: C_1  and  O_3 
REMARK    2  A    between atoms: C_1  and  C_4 
ROOT
ATOM      1  C   UNL d   1       6.740 -11.434 -27.900  0.00  0.00     0.213 C 
ATOM      2  O   UNL d   1       7.774 -10.871 -28.205  0.00  0.00    -0.644 OA
ENDROOT
BRANCH   1   3
ATOM      3  O   UNL d   1       5.810 -11.771 -28.798  0.00  0.00    -0.771 OA
ATOM      4  H   UNL d   1       4.974 -11.384 -28.472  0.00  0.00     0.168 HD
ENDBRANCH   1   3
BRANCH   1   5
ATOM      5  C   UNL d   1       6.375 -11.823 -26.460  0.00  0.00     0.218 C 
ATOM      6  O   UNL d   1       5.236 -12.159 -26.162  0.00  0.00    -0.286 OA
ATOM      7  C   UNL d   1       7.499 -11.761 -25.469  0.00  0.00     0.103 C 
ENDBRANCH   1   5
TORSDOF 2
ENDMDL
MODEL 4
REMARK VINA RESULT:      -3.8      3.500      4.256
REMARK  2 active torsions:
REMARK  status: ('A' for Active; 'I' for Inactive)
REMARK    1  A    between atoms: C_1  and  O_3 
REMARK    2  A    between atoms: C_1  and  C_4 
ROOT
ATOM      1  C   UNL d   1       9.306  -9.686 -25.109  0.00  0.00     0.213 C 
ATOM      2  O   UNL d   1      10.178  -8.855 -25.277  0.00  0.00    -0.644 OA
ENDROOT
BRANCH   1   3
ATOM      3  O   UNL d   1       9.195 -10.779 -25.868  0.00  0.00    -0.771 OA
ATOM      4  H   UNL d   1       9.038 -10.455 -26.778  0.00  0.00     0.168 HD
ENDBRANCH   1   3
BRANCH   1   5
ATOM      5  C   UNL d   1       8.233  -9.585 -24.015  0.00  0.00     0.218 C 
ATOM      6  O   UNL d   1       8.422 -10.043 -22.895  0.00  0.00    -0.286 OA
ATOM      7  C   UNL d   1       6.963  -8.896 -24.417  0.00  0.00     0.103 C 
ENDBRANCH   1   5
TORSDOF 2
ENDMDL
MODEL 5
REMARK VINA RESULT:      -3.8      3.023      4.109
REMARK  2 active torsions:
REMARK  status: ('A' for Active; 'I' for Inactive)
REMARK    1  A    between atoms: C_1  and  O_3 
REMARK    2  A    between atoms: C_1  and  C_4 
ROOT
ATOM      1  C   UNL d   1       8.672 -10.615 -25.573  0.00  0.00     0.213 C 
ATOM      2  O   UNL d   1       9.247 -11.409 -26.293  0.00  0.00    -0.644 OA
ENDROOT
BRANCH   1   3
ATOM      3  O   UNL d   1       7.371 -10.714 -25.285  0.00  0.00    -0.771 OA
ATOM      4  H   UNL d   1       6.995 -11.312 -25.961  0.00  0.00     0.168 HD
ENDBRANCH   1   3
BRANCH   1   5
ATOM      5  C   UNL d   1       9.360  -9.412 -24.912  0.00  0.00     0.218 C 
ATOM      6  O   UNL d   1      10.257  -8.802 -25.479  0.00  0.00    -0.286 OA
ATOM      7  C   UNL d   1       8.855  -9.050 -23.547  0.00  0.00     0.103 C 
ENDBRANCH   1   5
TORSDOF 2
ENDMDL
MODEL 6
REMARK VINA RESULT:      -3.7      3.280      4.215
REMARK  2 active torsions:
REMARK  status: ('A' for Active; 'I' for Inactive)
REMARK    1  A    between atoms: C_1  and  O_3 
REMARK    2  A    between atoms: C_1  and  C_4 
ROOT
ATOM      1  C   UNL d   1       6.418 -11.678 -24.972  0.00  0.00     0.213 C 
ATOM      2  O   UNL d   1       6.468 -11.396 -26.154  0.00  0.00    -0.644 OA
ENDROOT
BRANCH   1   3
ATOM      3  O   UNL d   1       5.556 -12.573 -24.481  0.00  0.00    -0.771 OA
ATOM      4  H   UNL d   1       5.594 -12.471 -23.509  0.00  0.00     0.168 HD
ENDBRANCH   1   3
BRANCH   1   5
ATOM      5  C   UNL d   1       7.327 -11.049 -23.907  0.00  0.00     0.218 C 
ATOM      6  O   UNL d   1       8.102 -11.732 -23.249  0.00  0.00    -0.286 OA
ATOM      7  C   UNL d   1       7.194  -9.565 -23.738  0.00  0.00     0.103 C 
ENDBRANCH   1   5
TORSDOF 2
ENDMDL
MODEL 7
REMARK VINA RESULT:      -3.7      3.201      3.813
REMARK  2 active torsions:
REMARK  status: ('A' for Active; 'I' for Inactive)
REMARK    1  A    between atoms: C_1  and  O_3 
REMARK    2  A    between atoms: C_1  and  C_4 
ROOT
ATOM      1  C   UNL d   1       9.357  -9.324 -24.645  0.00  0.00     0.213 C 
ATOM      2  O   UNL d   1       9.028  -8.772 -23.613  0.00  0.00    -0.644 OA
ENDROOT
BRANCH   1   3
ATOM      3  O   UNL d   1      10.232  -8.790 -25.501  0.00  0.00    -0.771 OA
ATOM      4  H   UNL d   1       9.695  -8.338 -26.181  0.00  0.00     0.168 HD
ENDBRANCH   1   3
BRANCH   1   5
ATOM      5  C   UNL d   1       8.815 -10.690 -25.091  0.00  0.00     0.218 C 
ATOM      6  O   UNL d   1       9.080 -11.150 -26.194  0.00  0.00    -0.286 OA
ATOM      7  C   UNL d   1       7.954 -11.402 -24.089  0.00  0.00     0.103 C 
ENDBRANCH   1   5
TORSDOF 2
ENDMDL
MODEL 8
REMARK VINA RESULT:      -3.7      1.101      2.300
REMARK  2 active torsions:
REMARK  status: ('A' for Active; 'I' for Inactive)
REMARK    1  A    between atoms: C_1  and  O_3 
REMARK    2  A    between atoms: C_1  and  C_4 
ROOT
ATOM      1  C   UNL d   1       7.307 -10.559 -27.675  0.00  0.00     0.213 C 
ATOM      2  O   UNL d   1       6.266 -10.983 -28.140  0.00  0.00    -0.644 OA
ENDROOT
BRANCH   1   3
ATOM      3  O   UNL d   1       7.895  -9.445 -28.119  0.00  0.00    -0.771 OA
ATOM      4  H   UNL d   1       8.857  -9.605 -28.045  0.00  0.00     0.168 HD
ENDBRANCH   1   3
BRANCH   1   5
ATOM      5  C   UNL d   1       8.070 -11.244 -26.531  0.00  0.00     0.218 C 
ATOM      6  O   UNL d   1       9.258 -11.519 -26.636  0.00  0.00    -0.286 OA
ATOM      7  C   UNL d   1       7.263 -11.541 -25.303  0.00  0.00     0.103 C 
ENDBRANCH   1   5
TORSDOF 2
ENDMDL
MODEL 9
REMARK VINA RESULT:      -3.7      3.003      3.959
REMARK  2 active torsions:
REMARK  status: ('A' for Active; 'I' for Inactive)
REMARK    1  A    between atoms: C_1  and  O_3 
REMARK    2  A    between atoms: C_1  and  C_4 
ROOT
ATOM      1  C   UNL d   1       7.720 -11.246 -24.331  0.00  0.00     0.213 C 
ATOM      2  O   UNL d   1       7.916 -11.611 -23.188  0.00  0.00    -0.644 OA
ENDROOT
BRANCH   1   3
ATOM      3  O   UNL d   1       6.524 -11.333 -24.921  0.00  0.00    -0.771 OA
ATOM      4  H   UNL d   1       6.706 -11.530 -25.861  0.00  0.00     0.168 HD
ENDBRANCH   1   3
BRANCH   1   5
ATOM      5  C   UNL d   1       8.809 -10.648 -25.233  0.00  0.00     0.218 C 
ATOM      6  O   UNL d   1       9.101 -11.164 -26.305  0.00  0.00    -0.286 OA
ATOM      7  C   UNL d   1       9.473  -9.409 -24.710  0.00  0.00     0.103 C 
ENDBRANCH   1   5
TORSDOF 2
ENDMDL
