REMARK  2 active torsions:
REMARK  status: ('A' for Active; 'I' for Inactive)
REMARK    1  A    between atoms: C_1  and  O_3 
REMARK    2  A    between atoms: C_1  and  C_4 
ROOT
ATOM      1  C   UNL d   1       0.999  -0.097   0.026  0.00  0.00     0.213 C 
ATOM      2  O   UNL d   1       0.350  -0.925   0.636  0.00  0.00    -0.644 OA
ENDROOT
BRANCH   1   3
ATOM      3  O   UNL d   1       0.433   0.877  -0.692  0.00  0.00    -0.771 OA
ATOM      4  H   UNL d   1      -0.532   0.749  -0.598  0.00  0.00     0.168 HD
ENDBRANCH   1   3
BRANCH   1   5
ATOM      5  C   UNL d   1       2.534  -0.066   0.003  0.00  0.00     0.218 C 
ATOM      6  O   UNL d   1       3.143   0.788  -0.628  0.00  0.00    -0.286 OA
ATOM      7  C   UNL d   1       3.214  -1.141   0.798  0.00  0.00     0.103 C 
ENDBRANCH   1   5
TORSDOF 2
