@<TRIPOS>MOLECULE
PYR
 10 9 0 0 0
SMALL
GASTEIGER

@<TRIPOS>ATOM
      1 C           0.9989   -0.0974    0.0264 C.2     1  UNL1        0.3723
      2 O           0.3505   -0.9250    0.6364 O.2     1  UNL1       -0.2419
      3 O           0.4326    0.8766   -0.6915 O.3     1  UNL1       -0.4751
      4 C           2.5343   -0.0663    0.0033 C.2     1  UNL1        0.2360
      5 O           3.1432    0.7885   -0.6283 O.2     1  UNL1       -0.2854
      6 C           3.2142   -1.1413    0.7981 C.3     1  UNL1        0.0052
      7 H          -0.5324    0.7492   -0.5975 H       1  UNL1        0.2955
      8 H           2.9371   -1.0568    1.8513 H       1  UNL1        0.0311
      9 H           2.9371   -2.1237    0.4078 H       1  UNL1        0.0311
     10 H           4.2988   -1.0253    0.7122 H       1  UNL1        0.0311
@<TRIPOS>BOND
     1     1     2    2
     2     1     3    1
     3     1     4    1
     4     3     7    1
     5     4     5    2
     6     4     6    1
     7     6     8    1
     8     6     9    1
     9     6    10    1
