@<TRIPOS>MOLECULE
5742673
 47 49 0 0 0
SMALL
GASTEIGER

@<TRIPOS>ATOM
      1 S           1.3653    0.9934    0.6570 S.3     1  UNL11      -0.1310
      2 S          -0.9999    1.1583   -3.6570 S.3     1  UNL11      -0.0604
      3 O          -2.4946   -0.3754    1.2857 O.2     1  UNL11      -0.2731
      4 O           3.0288   -3.2826   -0.6445 O.3     1  UNL11      -0.4603
      5 O          -2.1830   -2.7978    0.0993 O.3     1  UNL11      -0.4763
      6 OXT        -0.3846   -4.0586   -0.3294 O.2     1  UNL11      -0.2437
      7 O          -0.1109    4.7015    0.7291 O.2     1  UNL11      -0.2683
      8 O           2.5961    4.3054    0.2200 O.2     1  UNL11      -0.3964
      9 O           1.5569   -4.5877   -1.8272 O.2     1  UNL11      -0.2512
     10 N          -0.6819   -0.4932   -0.1685 N.am    1  UNL11      -0.2489
     11 N          -1.3379    2.8003    0.4904 N.am    1  UNL11      -0.2963
     12 N           2.1324    3.4510   -0.7814 N.2     1  UNL11      -0.0779
     13 N           1.3072    1.4744   -2.5750 N.pl3   1  UNL11      -0.2233
     14 N           1.2394   -0.1945   -4.1938 N.pl3   1  UNL11      -0.3375
     15 C          -0.0085    0.7581   -0.5129 C.3     1  UNL11       0.1042
     16 CA         -1.3801    1.4532   -0.1831 C.3     1  UNL11       0.1286
     17 C          -1.6878    0.1019    0.5327 C.2     1  UNL11       0.2440
     18 CA         -0.0328   -1.6926    0.0311 C.2     1  UNL11       0.1252
     19 C           1.3264   -1.7495    0.1603 C.2     1  UNL11       0.0056
     20 C           2.2206   -0.5298    0.1342 C.3     1  UNL11       0.0220
     21 C           2.0967   -3.0364    0.4193 C.3     1  UNL11       0.1166
     22 C          -0.8577   -2.9684   -0.0359 C.2     1  UNL11       0.3515
     23 C          -0.2261    3.5912    0.2073 C.2     1  UNL11       0.2684
     24 C           0.8706    3.1415   -0.7641 C.2     1  UNL11       0.1897
     25 C           0.4407    2.3412   -1.9212 C.3     1  UNL11       0.1067
     26 C           2.5203   -3.8387   -1.7750 C.2     1  UNL11       0.3043
     27 C          -0.8541    2.3290   -2.4174 C.3     1  UNL11       0.0067
     28 C           3.3062   -3.3857   -2.9673 C.3     1  UNL11       0.0332
     29 C           0.6591    0.7696   -3.4670 C.3     1  UNL11       0.1562
     30 C           3.9691    3.9425    0.4531 C.3     1  UNL11       0.1072
     31 H           0.2833    0.8194   -1.5682 H       1  UNL11       0.0644
     32 HA         -2.0487    1.5281   -1.0580 H       1  UNL11       0.0622
     33 H           2.6157   -0.3955   -0.8812 H       1  UNL11       0.0424
     34 H           3.0833   -0.6509    0.7951 H       1  UNL11       0.0424
     35 H          -2.1343    3.2200    0.9578 H       1  UNL11       0.1499
     36 H           2.6515   -2.9861    1.3628 H       1  UNL11       0.0746
     37 H           1.4339   -3.9052    0.5446 H       1  UNL11       0.0746
     38 H          -2.4604   -1.9569    0.5215 H       1  UNL11       0.2954
     39 H          -1.7089    2.8976   -2.0777 H       1  UNL11       0.0716
     40 H           3.2925   -2.2943   -3.0276 H       1  UNL11       0.0342
     41 H           4.3318   -3.7548   -2.8968 H       1  UNL11       0.0342
     42 H           2.8493   -3.7873   -3.8766 H       1  UNL11       0.0342
     43 H           4.1047    2.8523    0.4200 H       1  UNL11       0.0687
     44 H           4.6262    4.4000   -0.2976 H       1  UNL11       0.0687
     45 H           4.2653    4.2922    1.4440 H       1  UNL11       0.0687
     46 H           0.7845   -0.5196   -5.0364 H       1  UNL11       0.1442
     47 H           2.2521   -0.1915   -4.2165 H       1  UNL11       0.1442
@<TRIPOS>BOND
     1     1    15    1
     2     1    20    1
     3     2    27   ar
     4     2    29   ar
     5     3    17    2
     6     4    21    1
     7     4    26    1
     8     5    22    1
     9     5    38    1
    10     6    22    2
    11     7    23    2
    12     8    12    1
    13     8    30    1
    14     9    26    2
    15    10    15    1
    16    10    17   am
    17    10    18    1
    18    16    11    1
    19    11    23   am
    20    11    35    1
    21    12    24    2
    22    13    25   ar
    23    13    29   ar
    24    14    29    1
    25    14    46    1
    26    14    47    1
    27    15    16    1
    28    15    31    1
    29    16    17    1
    30    16    32    1
    31    18    19    2
    32    18    22    1
    33    19    20    1
    34    19    21    1
    35    20    33    1
    36    20    34    1
    37    21    36    1
    38    21    37    1
    39    23    24    1
    40    24    25    1
    41    25    27   ar
    42    26    28    1
    43    27    39    1
    44    28    40    1
    45    28    41    1
    46    28    42    1
    47    30    43    1
    48    30    44    1
    49    30    45    1
