REMARK  10 active torsions:
REMARK  status: ('A' for Active; 'I' for Inactive)
REMARK    1  A    between atoms: O_4  and  C_21 
REMARK    2  A    between atoms: O_4  and  C_26 
REMARK    3  A    between atoms: O_5  and  C_22 
REMARK    4  A    between atoms: O_8  and  N_12 
REMARK    5  A    between atoms: CA_16  and  N_11 
REMARK       I    between atoms: N_11  and  C_23 
REMARK    6  A    between atoms: N_14  and  C_29 
REMARK    7  A    between atoms: CA_18  and  C_22 
REMARK    8  A    between atoms: C_19  and  C_21 
REMARK    9  A    between atoms: C_23  and  C_24 
REMARK   10  A    between atoms: C_24  and  C_25 
ROOT
ATOM      1  S   UNL d   1       1.365   0.993   0.657  0.00  0.00    -0.136 SA
ATOM      2  O   UNL d   1      -2.495  -0.375   1.286  0.00  0.00    -0.271 OA
ATOM      3  N   UNL d   1      -0.682  -0.493  -0.169  0.00  0.00    -0.293 N 
ATOM      4  C   UNL d   1      -0.009   0.758  -0.513  0.00  0.00     0.187 C 
ATOM      5  CA  UNL d   1      -1.380   1.453  -0.183  0.00  0.00     0.211 C 
ATOM      6  C   UNL d   1      -1.688   0.102   0.533  0.00  0.00     0.251 C 
ATOM      7  CA  UNL d   1      -0.033  -1.693   0.031  0.00  0.00     0.117 C 
ATOM      8  C   UNL d   1       1.326  -1.750   0.160  0.00  0.00    -0.013 C 
ATOM      9  C   UNL d   1       2.221  -0.530   0.134  0.00  0.00     0.115 C 
ENDROOT
BRANCH   5  10
ATOM     10  N   UNL d   1      -1.338   2.800   0.490  0.00  0.00    -0.339 N 
ATOM     11  C   UNL d   1      -0.226   3.591   0.207  0.00  0.00     0.275 C 
ATOM     12  O   UNL d   1      -0.111   4.702   0.729  0.00  0.00    -0.266 OA
ATOM     13  H   UNL d   1      -2.134   3.220   0.958  0.00  0.00     0.163 HD
BRANCH  11  14
ATOM     14  C   UNL d   1       0.871   3.142  -0.764  0.00  0.00     0.180 C 
ATOM     15  N   UNL d   1       2.132   3.451  -0.781  0.00  0.00    -0.126 NA
BRANCH  15  16
ATOM     16  O   UNL d   1       2.596   4.305   0.220  0.00  0.00    -0.261 OA
ATOM     17  C   UNL d   1       3.969   3.942   0.453  0.00  0.00     0.240 C 
ENDBRANCH  15  16
BRANCH  14  18
ATOM     18  C   UNL d   1       0.441   2.341  -1.921  0.00  0.00     0.102 A 
ATOM     19  N   UNL d   1       1.307   1.474  -2.575  0.00  0.00    -0.222 NA
ATOM     20  C   UNL d   1       0.659   0.770  -3.467  0.00  0.00     0.164 A 
ATOM     21  S   UNL d   1      -1.000   1.158  -3.657  0.00  0.00    -0.062 SA
ATOM     22  C   UNL d   1      -0.854   2.329  -2.417  0.00  0.00     0.087 A 
BRANCH  20  23
ATOM     23  N   UNL d   1       1.239  -0.195  -4.194  0.00  0.00    -0.378 N 
ATOM     24  H   UNL d   1       0.784  -0.520  -5.036  0.00  0.00     0.158 HD
ATOM     25  H   UNL d   1       2.252  -0.192  -4.216  0.00  0.00     0.158 HD
ENDBRANCH  20  23
ENDBRANCH  14  18
ENDBRANCH  11  14
ENDBRANCH   5  10
BRANCH   7  26
ATOM     26  C   UNL d   1      -0.858  -2.968  -0.036  0.00  0.00     0.194 C 
ATOM     27  OXT UNL d   1      -0.385  -4.059  -0.329  0.00  0.00    -0.645 OA
BRANCH  26  28
ATOM     28  O   UNL d   1      -2.183  -2.798   0.099  0.00  0.00    -0.772 OA
ATOM     29  H   UNL d   1      -2.460  -1.957   0.521  0.00  0.00     0.167 HD
ENDBRANCH  26  28
ENDBRANCH   7  26
BRANCH   8  30
ATOM     30  C   UNL d   1       2.097  -3.036   0.419  0.00  0.00     0.216 C 
BRANCH  30  31
ATOM     31  O   UNL d   1       3.029  -3.283  -0.644  0.00  0.00    -0.317 OA
BRANCH  31  32
ATOM     32  C   UNL d   1       2.520  -3.839  -1.775  0.00  0.00     0.255 C 
ATOM     33  O   UNL d   1       1.557  -4.588  -1.827  0.00  0.00    -0.266 OA
ATOM     34  C   UNL d   1       3.306  -3.386  -2.967  0.00  0.00     0.126 C 
ENDBRANCH  31  32
ENDBRANCH  30  31
ENDBRANCH   8  30
TORSDOF 10
