REMARK  3 active torsions:
REMARK  status: ('A' for Active; 'I' for Inactive)
REMARK    1  A    between atoms: C_1  and  O_3 
REMARK    2  A    between atoms: C_1  and  C_4 
REMARK    3  A    between atoms: C_5  and  O_10 
ROOT
ATOM      1  C   UNL d   1       2.477  -0.142   0.007  0.00  0.00     0.070 A 
ATOM      2  C   UNL d   1       3.206  -1.339   0.023  0.00  0.00     0.082 A 
ATOM      3  C   UNL d   1       4.600  -1.319   0.049  0.00  0.00     0.037 A 
ATOM      4  C   UNL d   1       5.282  -0.102   0.052  0.00  0.00     0.003 A 
ATOM      5  C   UNL d   1       4.570   1.096   0.029  0.00  0.00     0.001 A 
ATOM      6  C   UNL d   1       3.172   1.077   0.008  0.00  0.00     0.021 A 
ENDROOT
BRANCH   1   7
ATOM      7  C   UNL d   1       0.994  -0.078  -0.005  0.00  0.00     0.178 C 
ATOM      8  O   UNL d   1       0.317   0.934  -0.018  0.00  0.00    -0.646 OA
BRANCH   7   9
ATOM      9  O   UNL d   1       0.416  -1.297   0.007  0.00  0.00    -0.773 OA
ATOM     10  H   UNL d   1      -0.545  -1.087   0.013  0.00  0.00     0.167 HD
ENDBRANCH   7   9
ENDBRANCH   1   7
BRANCH   2  11
ATOM     11  O   UNL d   1       2.630  -2.581   0.013  0.00  0.00    -0.360 OA
ATOM     12  H   UNL d   1       1.658  -2.453  -0.015  0.00  0.00     0.217 HD
ENDBRANCH   2  11
TORSDOF 3
