@<TRIPOS>MOLECULE
SAL
 16 16 0 0 0
SMALL
GASTEIGER

@<TRIPOS>ATOM
      1 C           0.9942   -0.0778   -0.0051 C.2     1  UNL1        0.3404
      2 O           0.3167    0.9336   -0.0177 O.2     1  UNL1       -0.2450
      3 O           0.4158   -1.2974    0.0070 O.3     1  UNL1       -0.4770
      4 C           2.4770   -0.1418    0.0074 C.ar    1  UNL1        0.1001
      5 C           3.2056   -1.3394    0.0230 C.ar    1  UNL1        0.1308
      6 C           4.6000   -1.3187    0.0489 C.ar    1  UNL1       -0.0194
      7 C           5.2819   -0.1021    0.0525 C.ar    1  UNL1       -0.0583
      8 C           4.5696    1.0958    0.0290 C.ar    1  UNL1       -0.0608
      9 C           3.1725    1.0772    0.0078 C.ar    1  UNL1       -0.0442
     10 O           2.6300   -2.5812    0.0125 O.3     1  UNL1       -0.5059
     11 H          -0.5452   -1.0865    0.0134 H       1  UNL1        0.2954
     12 H           5.1538   -2.2540    0.0669 H       1  UNL1        0.0654
     13 H           6.3689   -0.0910    0.0732 H       1  UNL1        0.0619
     14 H           5.1017    2.0443    0.0289 H       1  UNL1        0.0618
     15 H           2.6288    2.0205   -0.0071 H       1  UNL1        0.0627
     16 H           1.6583   -2.4529   -0.0147 H       1  UNL1        0.2922
@<TRIPOS>BOND
     1     1     2    2
     2     1     3    1
     3     1     4    1
     4     3    11    1
     5     4     5   ar
     6     4     9   ar
     7     5     6   ar
     8     5    10    1
     9     6     7   ar
    10     6    12    1
    11     7     8   ar
    12     7    13    1
    13     8     9   ar
    14     8    14    1
    15     9    15    1
    16    10    16    1
