MODEL 1
REMARK VINA RESULT:      -6.1      0.000      0.000
REMARK  3 active torsions:
REMARK  status: ('A' for Active; 'I' for Inactive)
REMARK    1  A    between atoms: C_1  and  O_3 
REMARK    2  A    between atoms: C_1  and  C_4 
REMARK    3  A    between atoms: C_5  and  O_10 
ROOT
ATOM      1  C   UNL d   1       6.964 -10.620 -26.203  0.00  0.00     0.070 A 
ATOM      2  C   UNL d   1       6.198 -11.615 -25.581  0.00  0.00     0.082 A 
ATOM      3  C   UNL d   1       6.526 -12.064 -24.302  0.00  0.00     0.037 A 
ATOM      4  C   UNL d   1       7.624 -11.524 -23.632  0.00  0.00     0.003 A 
ATOM      5  C   UNL d   1       8.397 -10.537 -24.241  0.00  0.00     0.001 A 
ATOM      6  C   UNL d   1       8.069 -10.085 -25.522  0.00  0.00     0.021 A 
ENDROOT
BRANCH   1   7
ATOM      7  C   UNL d   1       6.678 -10.081 -27.555  0.00  0.00     0.178 C 
ATOM      8  O   UNL d   1       5.628 -10.186 -28.163  0.00  0.00    -0.646 OA
BRANCH   7   9
ATOM      9  O   UNL d   1       7.729  -9.433 -28.100  0.00  0.00    -0.773 OA
ATOM     10  H   UNL d   1       8.454 -10.094 -28.026  0.00  0.00     0.167 HD
ENDBRANCH   7   9
ENDBRANCH   1   7
BRANCH   2  11
ATOM     11  O   UNL d   1       5.106 -12.207 -26.157  0.00  0.00    -0.360 OA
ATOM     12  H   UNL d   1       4.830 -12.944 -25.573  0.00  0.00     0.217 HD
ENDBRANCH   2  11
TORSDOF 3
ENDMDL
MODEL 2
REMARK VINA RESULT:      -6.0      1.253      2.290
REMARK  3 active torsions:
REMARK  status: ('A' for Active; 'I' for Inactive)
REMARK    1  A    between atoms: C_1  and  O_3 
REMARK    2  A    between atoms: C_1  and  C_4 
REMARK    3  A    between atoms: C_5  and  O_10 
ROOT
ATOM      1  C   UNL d   1       7.014 -11.471 -26.396  0.00  0.00     0.070 A 
ATOM      2  C   UNL d   1       7.999 -10.758 -25.699  0.00  0.00     0.082 A 
ATOM      3  C   UNL d   1       8.108 -10.873 -24.313  0.00  0.00     0.037 A 
ATOM      4  C   UNL d   1       7.234 -11.701 -23.609  0.00  0.00     0.003 A 
ATOM      5  C   UNL d   1       6.247 -12.412 -24.290  0.00  0.00     0.001 A 
ATOM      6  C   UNL d   1       6.137 -12.299 -25.679  0.00  0.00     0.021 A 
ENDROOT
BRANCH   1   7
ATOM      7  C   UNL d   1       6.836 -11.411 -27.867  0.00  0.00     0.178 C 
ATOM      8  O   UNL d   1       5.793 -11.574 -28.473  0.00  0.00    -0.646 OA
BRANCH   7   9
ATOM      9  O   UNL d   1       7.984 -11.153 -28.529  0.00  0.00    -0.773 OA
ATOM     10  H   UNL d   1       8.326 -12.053 -28.730  0.00  0.00     0.167 HD
ENDBRANCH   7   9
ENDBRANCH   1   7
BRANCH   2  11
ATOM     11  O   UNL d   1       8.900  -9.920 -26.299  0.00  0.00    -0.360 OA
ATOM     12  H   UNL d   1       8.456  -9.520 -27.077  0.00  0.00     0.217 HD
ENDBRANCH   2  11
TORSDOF 3
ENDMDL
MODEL 3
REMARK VINA RESULT:      -6.0      1.700      3.167
REMARK  3 active torsions:
REMARK  status: ('A' for Active; 'I' for Inactive)
REMARK    1  A    between atoms: C_1  and  O_3 
REMARK    2  A    between atoms: C_1  and  C_4 
REMARK    3  A    between atoms: C_5  and  O_10 
ROOT
ATOM      1  C   UNL d   1       7.028 -11.053 -25.217  0.00  0.00     0.070 A 
ATOM      2  C   UNL d   1       7.975 -10.967 -24.189  0.00  0.00     0.082 A 
ATOM      3  C   UNL d   1       8.957  -9.977 -24.213  0.00  0.00     0.037 A 
ATOM      4  C   UNL d   1       9.003  -9.062 -25.265  0.00  0.00     0.003 A 
ATOM      5  C   UNL d   1       8.068  -9.139 -26.296  0.00  0.00     0.001 A 
ATOM      6  C   UNL d   1       7.083 -10.130 -26.274  0.00  0.00     0.021 A 
ENDROOT
BRANCH   1   7
ATOM      7  C   UNL d   1       5.948 -12.069 -25.263  0.00  0.00     0.178 C 
ATOM      8  O   UNL d   1       5.695 -12.889 -24.400  0.00  0.00    -0.646 OA
BRANCH   7   9
ATOM      9  O   UNL d   1       5.224 -12.021 -26.401  0.00  0.00    -0.773 OA
ATOM     10  H   UNL d   1       4.971 -11.072 -26.458  0.00  0.00     0.167 HD
ENDBRANCH   7   9
ENDBRANCH   1   7
BRANCH   2  11
ATOM     11  O   UNL d   1       8.015 -11.818 -23.117  0.00  0.00    -0.360 OA
ATOM     12  H   UNL d   1       8.958 -11.967 -22.896  0.00  0.00     0.217 HD
ENDBRANCH   2  11
TORSDOF 3
ENDMDL
MODEL 4
REMARK VINA RESULT:      -6.0      2.739      4.148
REMARK  3 active torsions:
REMARK  status: ('A' for Active; 'I' for Inactive)
REMARK    1  A    between atoms: C_1  and  O_3 
REMARK    2  A    between atoms: C_1  and  C_4 
REMARK    3  A    between atoms: C_5  and  O_10 
ROOT
ATOM      1  C   UNL d   1       7.413  -9.702 -24.625  0.00  0.00     0.070 A 
ATOM      2  C   UNL d   1       8.001  -9.972 -25.867  0.00  0.00     0.082 A 
ATOM      3  C   UNL d   1       7.470  -9.424 -27.035  0.00  0.00     0.037 A 
ATOM      4  C   UNL d   1       6.345  -8.602 -26.973  0.00  0.00     0.003 A 
ATOM      5  C   UNL d   1       5.747  -8.329 -25.744  0.00  0.00     0.001 A 
ATOM      6  C   UNL d   1       6.279  -8.876 -24.573  0.00  0.00     0.021 A 
ENDROOT
BRANCH   1   7
ATOM      7  C   UNL d   1       7.919 -10.236 -23.337  0.00  0.00     0.178 C 
ATOM      8  O   UNL d   1       8.296  -9.579 -22.384  0.00  0.00    -0.646 OA
BRANCH   7   9
ATOM      9  O   UNL d   1       7.941 -11.585 -23.296  0.00  0.00    -0.773 OA
ATOM     10  H   UNL d   1       6.987 -11.820 -23.341  0.00  0.00     0.167 HD
ENDBRANCH   7   9
ENDBRANCH   1   7
BRANCH   2  11
ATOM     11  O   UNL d   1       9.104 -10.766 -26.031  0.00  0.00    -0.360 OA
ATOM     12  H   UNL d   1       9.113 -11.066 -26.964  0.00  0.00     0.217 HD
ENDBRANCH   2  11
TORSDOF 3
ENDMDL
MODEL 5
REMARK VINA RESULT:      -6.0      1.085      1.459
REMARK  3 active torsions:
REMARK  status: ('A' for Active; 'I' for Inactive)
REMARK    1  A    between atoms: C_1  and  O_3 
REMARK    2  A    between atoms: C_1  and  C_4 
REMARK    3  A    between atoms: C_5  and  O_10 
ROOT
ATOM      1  C   UNL d   1       6.758 -11.046 -26.250  0.00  0.00     0.070 A 
ATOM      2  C   UNL d   1       6.493 -11.744 -25.064  0.00  0.00     0.082 A 
ATOM      3  C   UNL d   1       7.335 -11.606 -23.959  0.00  0.00     0.037 A 
ATOM      4  C   UNL d   1       8.449 -10.769 -24.029  0.00  0.00     0.003 A 
ATOM      5  C   UNL d   1       8.725 -10.073 -25.205  0.00  0.00     0.001 A 
ATOM      6  C   UNL d   1       7.883 -10.209 -26.312  0.00  0.00     0.021 A 
ENDROOT
BRANCH   1   7
ATOM      7  C   UNL d   1       5.910 -11.131 -27.464  0.00  0.00     0.178 C 
ATOM      8  O   UNL d   1       5.391 -10.195 -28.046  0.00  0.00    -0.646 OA
BRANCH   7   9
ATOM      9  O   UNL d   1       5.738 -12.396 -27.902  0.00  0.00    -0.773 OA
ATOM     10  H   UNL d   1       5.458 -12.872 -27.088  0.00  0.00     0.167 HD
ENDBRANCH   7   9
ENDBRANCH   1   7
BRANCH   2  11
ATOM     11  O   UNL d   1       5.429 -12.589 -24.898  0.00  0.00    -0.360 OA
ATOM     12  H   UNL d   1       4.696 -12.065 -24.511  0.00  0.00     0.217 HD
ENDBRANCH   2  11
TORSDOF 3
ENDMDL
MODEL 6
REMARK VINA RESULT:      -5.9      2.127      3.326
REMARK  3 active torsions:
REMARK  status: ('A' for Active; 'I' for Inactive)
REMARK    1  A    between atoms: C_1  and  O_3 
REMARK    2  A    between atoms: C_1  and  C_4 
REMARK    3  A    between atoms: C_5  and  O_10 
ROOT
ATOM      1  C   UNL d   1       8.338 -10.169 -24.890  0.00  0.00     0.070 A 
ATOM      2  C   UNL d   1       7.740 -10.458 -26.123  0.00  0.00     0.082 A 
ATOM      3  C   UNL d   1       6.759 -11.446 -26.219  0.00  0.00     0.037 A 
ATOM      4  C   UNL d   1       6.368 -12.155 -25.084  0.00  0.00     0.003 A 
ATOM      5  C   UNL d   1       6.959 -11.880 -23.852  0.00  0.00     0.001 A 
ATOM      6  C   UNL d   1       7.941 -10.890 -23.754  0.00  0.00     0.021 A 
ENDROOT
BRANCH   1   7
ATOM      7  C   UNL d   1       9.381  -9.130 -24.701  0.00  0.00     0.178 C 
ATOM      8  O   UNL d   1      10.278  -8.863 -25.479  0.00  0.00    -0.646 OA
BRANCH   7   9
ATOM      9  O   UNL d   1       9.260  -8.466 -23.533  0.00  0.00    -0.773 OA
ATOM     10  H   UNL d   1       8.765  -7.657 -23.792  0.00  0.00     0.167 HD
ENDBRANCH   7   9
ENDBRANCH   1   7
BRANCH   2  11
ATOM     11  O   UNL d   1       8.057  -9.820 -27.292  0.00  0.00    -0.360 OA
ATOM     12  H   UNL d   1       8.113 -10.503 -27.993  0.00  0.00     0.217 HD
ENDBRANCH   2  11
TORSDOF 3
ENDMDL
MODEL 7
REMARK VINA RESULT:      -5.9      1.899      3.479
REMARK  3 active torsions:
REMARK  status: ('A' for Active; 'I' for Inactive)
REMARK    1  A    between atoms: C_1  and  O_3 
REMARK    2  A    between atoms: C_1  and  C_4 
REMARK    3  A    between atoms: C_5  and  O_10 
ROOT
ATOM      1  C   UNL d   1       6.207 -10.771 -25.183  0.00  0.00     0.070 A 
ATOM      2  C   UNL d   1       5.833 -10.886 -26.528  0.00  0.00     0.082 A 
ATOM      3  C   UNL d   1       5.690  -9.747 -27.322  0.00  0.00     0.037 A 
ATOM      4  C   UNL d   1       5.917  -8.483 -26.779  0.00  0.00     0.003 A 
ATOM      5  C   UNL d   1       6.285  -8.355 -25.440  0.00  0.00     0.001 A 
ATOM      6  C   UNL d   1       6.430  -9.494 -24.644  0.00  0.00     0.021 A 
ENDROOT
BRANCH   1   7
ATOM      7  C   UNL d   1       6.389 -11.929 -24.274  0.00  0.00     0.178 C 
ATOM      8  O   UNL d   1       5.764 -12.973 -24.307  0.00  0.00    -0.646 OA
BRANCH   7   9
ATOM      9  O   UNL d   1       7.351 -11.730 -23.349  0.00  0.00    -0.773 OA
ATOM     10  H   UNL d   1       7.660 -10.818 -23.549  0.00  0.00     0.167 HD
ENDBRANCH   7   9
ENDBRANCH   1   7
BRANCH   2  11
ATOM     11  O   UNL d   1       5.586 -12.080 -27.150  0.00  0.00    -0.360 OA
ATOM     12  H   UNL d   1       4.612 -12.183 -27.210  0.00  0.00     0.217 HD
ENDBRANCH   2  11
TORSDOF 3
ENDMDL
MODEL 8
REMARK VINA RESULT:      -5.9      0.876      2.628
REMARK  3 active torsions:
REMARK  status: ('A' for Active; 'I' for Inactive)
REMARK    1  A    between atoms: C_1  and  O_3 
REMARK    2  A    between atoms: C_1  and  C_4 
REMARK    3  A    between atoms: C_5  and  O_10 
ROOT
ATOM      1  C   UNL d   1       6.892 -10.563 -26.004  0.00  0.00     0.070 A 
ATOM      2  C   UNL d   1       7.870  -9.618 -26.339  0.00  0.00     0.082 A 
ATOM      3  C   UNL d   1       8.834  -9.235 -25.406  0.00  0.00     0.037 A 
ATOM      4  C   UNL d   1       8.829  -9.793 -24.127  0.00  0.00     0.003 A 
ATOM      5  C   UNL d   1       7.859 -10.731 -23.780  0.00  0.00     0.001 A 
ATOM      6  C   UNL d   1       6.893 -11.116 -24.714  0.00  0.00     0.021 A 
ENDROOT
BRANCH   1   7
ATOM      7  C   UNL d   1       5.840 -11.030 -26.939  0.00  0.00     0.178 C 
ATOM      8  O   UNL d   1       5.566 -10.536 -28.017  0.00  0.00    -0.646 OA
BRANCH   7   9
ATOM      9  O   UNL d   1       5.161 -12.101 -26.479  0.00  0.00    -0.773 OA
ATOM     10  H   UNL d   1       4.222 -11.826 -26.582  0.00  0.00     0.167 HD
ENDBRANCH   7   9
ENDBRANCH   1   7
BRANCH   2  11
ATOM     11  O   UNL d   1       7.957  -9.013 -27.565  0.00  0.00    -0.360 OA
ATOM     12  H   UNL d   1       7.055  -8.717 -27.809  0.00  0.00     0.217 HD
ENDBRANCH   2  11
TORSDOF 3
ENDMDL
MODEL 9
REMARK VINA RESULT:      -5.7      2.226      3.068
REMARK  3 active torsions:
REMARK  status: ('A' for Active; 'I' for Inactive)
REMARK    1  A    between atoms: C_1  and  O_3 
REMARK    2  A    between atoms: C_1  and  C_4 
REMARK    3  A    between atoms: C_5  and  O_10 
ROOT
ATOM      1  C   UNL d   1       8.039 -10.412 -25.240  0.00  0.00     0.070 A 
ATOM      2  C   UNL d   1       7.545 -10.900 -24.022  0.00  0.00     0.082 A 
ATOM      3  C   UNL d   1       6.655 -11.974 -23.999  0.00  0.00     0.037 A 
ATOM      4  C   UNL d   1       6.249 -12.571 -25.192  0.00  0.00     0.003 A 
ATOM      5  C   UNL d   1       6.729 -12.092 -26.411  0.00  0.00     0.001 A 
ATOM      6  C   UNL d   1       7.622 -11.017 -26.436  0.00  0.00     0.021 A 
ENDROOT
BRANCH   1   7
ATOM      7  C   UNL d   1       8.993  -9.282 -25.351  0.00  0.00     0.178 C 
ATOM      8  O   UNL d   1       9.770  -8.910 -24.491  0.00  0.00    -0.646 OA
BRANCH   7   9
ATOM      9  O   UNL d   1       8.932  -8.653 -26.543  0.00  0.00    -0.773 OA
ATOM     10  H   UNL d   1       9.795  -8.883 -26.955  0.00  0.00     0.167 HD
ENDBRANCH   7   9
ENDBRANCH   1   7
BRANCH   2  11
ATOM     11  O   UNL d   1       7.882 -10.380 -22.801  0.00  0.00    -0.360 OA
ATOM     12  H   UNL d   1       8.390  -9.557 -22.963  0.00  0.00     0.217 HD
ENDBRANCH   2  11
TORSDOF 3
ENDMDL
