REMARK  3 active torsions:
REMARK  status: ('A' for Active; 'I' for Inactive)
REMARK    1  A    between atoms: C_1  and  O_3 
REMARK    2  A    between atoms: C_1  and  C_4 
REMARK    3  A    between atoms: C_5  and  O_10 
ROOT
ATOM      1  C   UNL d   1       2.480  -0.114   0.069  0.00  0.00     0.070 A 
ATOM      2  C   UNL d   1       3.208  -1.311   0.085  0.00  0.00     0.082 A 
ATOM      3  C   UNL d   1       4.603  -1.290   0.107  0.00  0.00     0.037 A 
ATOM      4  C   UNL d   1       5.284  -0.073   0.112  0.00  0.00     0.003 A 
ATOM      5  C   UNL d   1       4.571   1.125   0.092  0.00  0.00     0.001 A 
ATOM      6  C   UNL d   1       3.174   1.106   0.071  0.00  0.00     0.021 A 
ENDROOT
BRANCH   1   7
ATOM      7  C   UNL d   1       0.998  -0.049   0.054  0.00  0.00     0.178 C 
ATOM      8  O   UNL d   1       0.323   0.964   0.039  0.00  0.00    -0.646 OA
BRANCH   7   9
ATOM      9  O   UNL d   1       0.415  -1.266   0.065  0.00  0.00    -0.773 OA
ATOM     10  H   UNL d   1      -0.544  -1.048   0.064  0.00  0.00     0.167 HD
ENDBRANCH   7   9
ENDBRANCH   1   7
BRANCH   2  11
ATOM     11  O   UNL d   1       2.632  -2.553   0.079  0.00  0.00    -0.360 OA
ATOM     12  H   UNL d   1       1.660  -2.425   0.063  0.00  0.00     0.217 HD
ENDBRANCH   2  11
TORSDOF 3
