@<TRIPOS>MOLECULE
SAL
 16 16 0 0 0
SMALL
GASTEIGER

@<TRIPOS>ATOM
      1 C           0.9982   -0.0486    0.0544 C.2     1  UNL1        0.3404
      2 O           0.3231    0.9635    0.0392 O.2     1  UNL1       -0.2450
      3 O           0.4154   -1.2659    0.0653 O.3     1  UNL1       -0.4770
      4 C           2.4797   -0.1142    0.0694 C.ar    1  UNL1        0.1001
      5 C           3.2084   -1.3114    0.0847 C.ar    1  UNL1        0.1308
      6 C           4.6029   -1.2900    0.1074 C.ar    1  UNL1       -0.0194
      7 C           5.2839   -0.0727    0.1117 C.ar    1  UNL1       -0.0583
      8 C           4.5713    1.1249    0.0920 C.ar    1  UNL1       -0.0608
      9 C           3.1743    1.1056    0.0711 C.ar    1  UNL1       -0.0442
     10 O           2.6320   -2.5529    0.0786 O.3     1  UNL1       -0.5059
     11 H          -0.5439   -1.0476    0.0638 H       1  UNL1        0.2954
     12 H           5.1578   -2.2245    0.1220 H       1  UNL1        0.0654
     13 H           6.3709   -0.0602    0.1301 H       1  UNL1        0.0619
     14 H           5.1017    2.0742    0.0938 H       1  UNL1        0.0618
     15 H           2.6295    2.0478    0.0575 H       1  UNL1        0.0627
     16 H           1.6602   -2.4247    0.0626 H       1  UNL1        0.2922
@<TRIPOS>BOND
     1     1     2    2
     2     1     3    1
     3     1     4    1
     4     3    11    1
     5     4     5   ar
     6     4     9   ar
     7     5     6   ar
     8     5    10    1
     9     6     7   ar
    10     6    12    1
    11     7     8   ar
    12     7    13    1
    13     8     9   ar
    14     8    14    1
    15     9    15    1
    16    10    16    1
