MODEL 1
REMARK VINA RESULT:      -4.0      0.000      0.000
REMARK  2 active torsions:
REMARK  status: ('A' for Active; 'I' for Inactive)
REMARK    1  A    between atoms: C_1  and  O_3 
REMARK    2  A    between atoms: C_1  and  C_4 
ROOT
ATOM      1  C   UNL d   1       7.684 -10.751 -27.573  0.00  0.00     0.213 C 
ATOM      2  O   UNL d   1       8.667 -11.230 -27.041  0.00  0.00    -0.644 OA
ENDROOT
BRANCH   1   3
ATOM      3  O   UNL d   1       7.695  -9.553 -28.164  0.00  0.00    -0.771 OA
ATOM      4  H   UNL d   1       8.132  -9.688 -29.028  0.00  0.00     0.168 HD
ENDBRANCH   1   3
BRANCH   1   5
ATOM      5  C   UNL d   1       6.321 -11.456 -27.635  0.00  0.00     0.218 C 
ATOM      6  O   UNL d   1       5.773 -11.691 -28.705  0.00  0.00    -0.286 OA
ATOM      7  C   UNL d   1       5.726 -11.826 -26.308  0.00  0.00     0.103 C 
ENDBRANCH   1   5
TORSDOF 2
ENDMDL
MODEL 2
REMARK VINA RESULT:      -4.0      1.137      2.584
REMARK  2 active torsions:
REMARK  status: ('A' for Active; 'I' for Inactive)
REMARK    1  A    between atoms: C_1  and  O_3 
REMARK    2  A    between atoms: C_1  and  C_4 
ROOT
ATOM      1  C   UNL d   1       6.165 -11.693 -27.643  0.00  0.00     0.213 C 
ATOM      2  O   UNL d   1       5.490 -12.076 -26.707  0.00  0.00    -0.644 OA
ENDROOT
BRANCH   1   3
ATOM      3  O   UNL d   1       5.740 -11.743 -28.908  0.00  0.00    -0.771 OA
ATOM      4  H   UNL d   1       5.665 -10.813 -29.199  0.00  0.00     0.168 HD
ENDBRANCH   1   3
BRANCH   1   5
ATOM      5  C   UNL d   1       7.578 -11.110 -27.490  0.00  0.00     0.218 C 
ATOM      6  O   UNL d   1       7.929 -10.120 -28.120  0.00  0.00    -0.286 OA
ATOM      7  C   UNL d   1       8.474 -11.833 -26.529  0.00  0.00     0.103 C 
ENDBRANCH   1   5
TORSDOF 2
ENDMDL
MODEL 3
REMARK VINA RESULT:      -3.8      3.329      4.338
REMARK  2 active torsions:
REMARK  status: ('A' for Active; 'I' for Inactive)
REMARK    1  A    between atoms: C_1  and  O_3 
REMARK    2  A    between atoms: C_1  and  C_4 
ROOT
ATOM      1  C   UNL d   1       6.131 -11.680 -24.826  0.00  0.00     0.213 C 
ATOM      2  O   UNL d   1       5.739 -11.180 -25.862  0.00  0.00    -0.644 OA
ENDROOT
BRANCH   1   3
ATOM      3  O   UNL d   1       5.694 -12.863 -24.384  0.00  0.00    -0.771 OA
ATOM      4  H   UNL d   1       5.143 -13.228 -25.105  0.00  0.00     0.168 HD
ENDBRANCH   1   3
BRANCH   1   5
ATOM      5  C   UNL d   1       7.169 -11.023 -23.903  0.00  0.00     0.218 C 
ATOM      6  O   UNL d   1       7.907 -11.696 -23.195  0.00  0.00    -0.286 OA
ATOM      7  C   UNL d   1       7.206  -9.524 -23.939  0.00  0.00     0.103 C 
ENDBRANCH   1   5
TORSDOF 2
ENDMDL
MODEL 4
REMARK VINA RESULT:      -3.8      2.979      4.144
REMARK  2 active torsions:
REMARK  status: ('A' for Active; 'I' for Inactive)
REMARK    1  A    between atoms: C_1  and  O_3 
REMARK    2  A    between atoms: C_1  and  C_4 
ROOT
ATOM      1  C   UNL d   1       8.555 -10.548 -25.576  0.00  0.00     0.213 C 
ATOM      2  O   UNL d   1       7.366 -10.749 -25.423  0.00  0.00    -0.644 OA
ENDROOT
BRANCH   1   3
ATOM      3  O   UNL d   1       9.323 -11.316 -26.355  0.00  0.00    -0.771 OA
ATOM      4  H   UNL d   1       9.964 -10.708 -26.775  0.00  0.00     0.168 HD
ENDBRANCH   1   3
BRANCH   1   5
ATOM      5  C   UNL d   1       9.318  -9.397 -24.902  0.00  0.00     0.218 C 
ATOM      6  O   UNL d   1      10.253  -8.839 -25.461  0.00  0.00    -0.286 OA
ATOM      7  C   UNL d   1       8.835  -9.019 -23.533  0.00  0.00     0.103 C 
ENDBRANCH   1   5
TORSDOF 2
ENDMDL
MODEL 5
REMARK VINA RESULT:      -3.8      2.992      3.779
REMARK  2 active torsions:
REMARK  status: ('A' for Active; 'I' for Inactive)
REMARK    1  A    between atoms: C_1  and  O_3 
REMARK    2  A    between atoms: C_1  and  C_4 
ROOT
ATOM      1  C   UNL d   1       6.817 -11.877 -24.229  0.00  0.00     0.213 C 
ATOM      2  O   UNL d   1       5.789 -12.524 -24.207  0.00  0.00    -0.644 OA
ENDROOT
BRANCH   1   3
ATOM      3  O   UNL d   1       7.580 -11.695 -23.148  0.00  0.00    -0.771 OA
ATOM      4  H   UNL d   1       8.503 -11.795 -23.455  0.00  0.00     0.168 HD
ENDBRANCH   1   3
BRANCH   1   5
ATOM      5  C   UNL d   1       7.365 -11.193 -25.492  0.00  0.00     0.218 C 
ATOM      6  O   UNL d   1       6.787 -10.243 -26.004  0.00  0.00    -0.286 OA
ATOM      7  C   UNL d   1       8.640 -11.769 -26.034  0.00  0.00     0.103 C 
ENDBRANCH   1   5
TORSDOF 2
ENDMDL
MODEL 6
REMARK VINA RESULT:      -3.7      1.561      2.800
REMARK  2 active torsions:
REMARK  status: ('A' for Active; 'I' for Inactive)
REMARK    1  A    between atoms: C_1  and  O_3 
REMARK    2  A    between atoms: C_1  and  C_4 
ROOT
ATOM      1  C   UNL d   1       6.015 -11.133 -27.517  0.00  0.00     0.213 C 
ATOM      2  O   UNL d   1       5.782 -11.721 -28.555  0.00  0.00    -0.644 OA
ENDROOT
BRANCH   1   3
ATOM      3  O   UNL d   1       5.586 -11.569 -26.329  0.00  0.00    -0.771 OA
ATOM      4  H   UNL d   1       4.830 -12.159 -26.521  0.00  0.00     0.168 HD
ENDBRANCH   1   3
BRANCH   1   5
ATOM      5  C   UNL d   1       6.823  -9.829 -27.438  0.00  0.00     0.218 C 
ATOM      6  O   UNL d   1       7.856  -9.681 -28.078  0.00  0.00    -0.286 OA
ATOM      7  C   UNL d   1       6.256  -8.773 -26.535  0.00  0.00     0.103 C 
ENDBRANCH   1   5
TORSDOF 2
ENDMDL
MODEL 7
REMARK VINA RESULT:      -3.7      3.741      4.169
REMARK  2 active torsions:
REMARK  status: ('A' for Active; 'I' for Inactive)
REMARK    1  A    between atoms: C_1  and  O_3 
REMARK    2  A    between atoms: C_1  and  C_4 
ROOT
ATOM      1  C   UNL d   1       7.601 -10.689 -23.367  0.00  0.00     0.213 C 
ATOM      2  O   UNL d   1       8.004 -11.835 -23.327  0.00  0.00    -0.644 OA
ENDROOT
BRANCH   1   3
ATOM      3  O   UNL d   1       7.955  -9.767 -22.467  0.00  0.00    -0.771 OA
ATOM      4  H   UNL d   1       8.900  -9.581 -22.638  0.00  0.00     0.168 HD
ENDBRANCH   1   3
BRANCH   1   5
ATOM      5  C   UNL d   1       6.642 -10.160 -24.445  0.00  0.00     0.218 C 
ATOM      6  O   UNL d   1       5.885 -10.911 -25.047  0.00  0.00    -0.286 OA
ATOM      7  C   UNL d   1       6.706  -8.682 -24.695  0.00  0.00     0.103 C 
ENDBRANCH   1   5
TORSDOF 2
ENDMDL
MODEL 8
REMARK VINA RESULT:      -3.6      2.868      3.254
REMARK  2 active torsions:
REMARK  status: ('A' for Active; 'I' for Inactive)
REMARK    1  A    between atoms: C_1  and  O_3 
REMARK    2  A    between atoms: C_1  and  C_4 
ROOT
ATOM      1  C   UNL d   1       7.686 -11.423 -24.359  0.00  0.00     0.213 C 
ATOM      2  O   UNL d   1       7.966 -11.622 -23.192  0.00  0.00    -0.644 OA
ENDROOT
BRANCH   1   3
ATOM      3  O   UNL d   1       8.331 -10.530 -25.114  0.00  0.00    -0.771 OA
ATOM      4  H   UNL d   1       9.226 -10.898 -25.253  0.00  0.00     0.168 HD
ENDBRANCH   1   3
BRANCH   1   5
ATOM      5  C   UNL d   1       6.568 -12.167 -25.104  0.00  0.00     0.218 C 
ATOM      6  O   UNL d   1       5.493 -12.406 -24.567  0.00  0.00    -0.286 OA
ATOM      7  C   UNL d   1       6.890 -12.569 -26.514  0.00  0.00     0.103 C 
ENDBRANCH   1   5
TORSDOF 2
ENDMDL
MODEL 9
REMARK VINA RESULT:      -3.6      3.636      4.351
REMARK  2 active torsions:
REMARK  status: ('A' for Active; 'I' for Inactive)
REMARK    1  A    between atoms: C_1  and  O_3 
REMARK    2  A    between atoms: C_1  and  C_4 
ROOT
ATOM      1  C   UNL d   1       8.516  -9.397 -23.583  0.00  0.00     0.213 C 
ATOM      2  O   UNL d   1       8.015 -10.130 -22.752  0.00  0.00    -0.644 OA
ENDROOT
BRANCH   1   3
ATOM      3  O   UNL d   1       9.263  -8.338 -23.256  0.00  0.00    -0.771 OA
ATOM      4  H   UNL d   1       9.953  -8.278 -23.946  0.00  0.00     0.168 HD
ENDBRANCH   1   3
BRANCH   1   5
ATOM      5  C   UNL d   1       8.358  -9.595 -25.098  0.00  0.00     0.218 C 
ATOM      6  O   UNL d   1       9.184 -10.223 -25.748  0.00  0.00    -0.286 OA
ATOM      7  C   UNL d   1       7.137  -8.970 -25.705  0.00  0.00     0.103 C 
ENDBRANCH   1   5
TORSDOF 2
ENDMDL
