REMARK  2 active torsions:
REMARK  status: ('A' for Active; 'I' for Inactive)
REMARK    1  A    between atoms: C_1  and  O_3 
REMARK    2  A    between atoms: C_1  and  C_4 
ROOT
ATOM      1  C   UNL d   1       0.913   0.057  -0.032  0.00  0.00     0.213 C 
ATOM      2  O   UNL d   1       0.265  -0.796  -0.607  0.00  0.00    -0.644 OA
ENDROOT
BRANCH   1   3
ATOM      3  O   UNL d   1       0.347   1.060   0.645  0.00  0.00    -0.771 OA
ATOM      4  H   UNL d   1      -0.618   0.928   0.556  0.00  0.00     0.168 HD
ENDBRANCH   1   3
BRANCH   1   5
ATOM      5  C   UNL d   1       2.449   0.089  -0.010  0.00  0.00     0.218 C 
ATOM      6  O   UNL d   1       3.059   0.968   0.585  0.00  0.00    -0.286 OA
ATOM      7  C   UNL d   1       3.127  -1.020  -0.759  0.00  0.00     0.103 C 
ENDBRANCH   1   5
TORSDOF 2
