@<TRIPOS>MOLECULE
PYR
 10 9 0 0 0
SMALL
GASTEIGER

@<TRIPOS>ATOM
      1 C           0.9135    0.0565   -0.0316 C.2     1  UNL1        0.3723
      2 O           0.2648   -0.7960   -0.6065 O.2     1  UNL1       -0.2419
      3 O           0.3472    1.0600    0.6449 O.3     1  UNL1       -0.4751
      4 C           2.4494    0.0887   -0.0099 C.2     1  UNL1        0.2360
      5 O           3.0593    0.9681    0.5846 O.2     1  UNL1       -0.2854
      6 C           3.1273   -1.0202   -0.7595 C.3     1  UNL1        0.0052
      7 H          -0.6175    0.9281    0.5559 H       1  UNL1        0.2955
      8 H           2.8488   -1.9847   -0.3280 H       1  UNL1        0.0311
      9 H           2.8487   -0.9790   -1.8154 H       1  UNL1        0.0311
     10 H           4.2118   -0.9019   -0.6797 H       1  UNL1        0.0311
@<TRIPOS>BOND
     1     1     2    2
     2     1     3    1
     3     1     4    1
     4     3     7    1
     5     4     5    2
     6     4     6    1
     7     6     8    1
     8     6     9    1
     9     6    10    1
