MODEL 1
REMARK VINA RESULT:      -6.1      0.000      0.000
REMARK  3 active torsions:
REMARK  status: ('A' for Active; 'I' for Inactive)
REMARK    1  A    between atoms: C_1  and  O_3 
REMARK    2  A    between atoms: C_1  and  C_4 
REMARK    3  A    between atoms: C_5  and  O_10 
ROOT
ATOM      1  C   UNL d   1       6.965 -10.621 -26.203  0.00  0.00     0.070 A 
ATOM      2  C   UNL d   1       6.197 -11.616 -25.582  0.00  0.00     0.082 A 
ATOM      3  C   UNL d   1       6.522 -12.064 -24.302  0.00  0.00     0.037 A 
ATOM      4  C   UNL d   1       7.621 -11.528 -23.632  0.00  0.00     0.003 A 
ATOM      5  C   UNL d   1       8.396 -10.544 -24.241  0.00  0.00     0.001 A 
ATOM      6  C   UNL d   1       8.070 -10.089 -25.521  0.00  0.00     0.021 A 
ENDROOT
BRANCH   1   7
ATOM      7  C   UNL d   1       6.676 -10.081 -27.554  0.00  0.00     0.178 C 
ATOM      8  O   UNL d   1       5.625 -10.184 -28.162  0.00  0.00    -0.646 OA
BRANCH   7   9
ATOM      9  O   UNL d   1       7.727  -9.434 -28.099  0.00  0.00    -0.773 OA
ATOM     10  H   UNL d   1       8.066 -10.080 -28.758  0.00  0.00     0.167 HD
ENDBRANCH   7   9
ENDBRANCH   1   7
BRANCH   2  11
ATOM     11  O   UNL d   1       5.107 -12.208 -26.161  0.00  0.00    -0.360 OA
ATOM     12  H   UNL d   1       5.101 -11.951 -27.107  0.00  0.00     0.217 HD
ENDBRANCH   2  11
TORSDOF 3
ENDMDL
MODEL 2
REMARK VINA RESULT:      -6.0      1.280      2.296
REMARK  3 active torsions:
REMARK  status: ('A' for Active; 'I' for Inactive)
REMARK    1  A    between atoms: C_1  and  O_3 
REMARK    2  A    between atoms: C_1  and  C_4 
REMARK    3  A    between atoms: C_5  and  O_10 
ROOT
ATOM      1  C   UNL d   1       6.998 -11.500 -26.419  0.00  0.00     0.070 A 
ATOM      2  C   UNL d   1       7.967 -10.772 -25.714  0.00  0.00     0.082 A 
ATOM      3  C   UNL d   1       8.068 -10.890 -24.327  0.00  0.00     0.037 A 
ATOM      4  C   UNL d   1       7.200 -11.729 -23.631  0.00  0.00     0.003 A 
ATOM      5  C   UNL d   1       6.227 -12.452 -24.320  0.00  0.00     0.001 A 
ATOM      6  C   UNL d   1       6.127 -12.340 -25.709  0.00  0.00     0.021 A 
ENDROOT
BRANCH   1   7
ATOM      7  C   UNL d   1       6.835 -11.442 -27.892  0.00  0.00     0.178 C 
ATOM      8  O   UNL d   1       5.802 -11.625 -28.511  0.00  0.00    -0.646 OA
BRANCH   7   9
ATOM      9  O   UNL d   1       7.985 -11.162 -28.540  0.00  0.00    -0.773 OA
ATOM     10  H   UNL d   1       8.205 -12.014 -28.978  0.00  0.00     0.167 HD
ENDBRANCH   7   9
ENDBRANCH   1   7
BRANCH   2  11
ATOM     11  O   UNL d   1       8.858  -9.919 -26.305  0.00  0.00    -0.360 OA
ATOM     12  H   UNL d   1       9.457 -10.460 -26.862  0.00  0.00     0.217 HD
ENDBRANCH   2  11
TORSDOF 3
ENDMDL
MODEL 3
REMARK VINA RESULT:      -6.0      1.701      3.171
REMARK  3 active torsions:
REMARK  status: ('A' for Active; 'I' for Inactive)
REMARK    1  A    between atoms: C_1  and  O_3 
REMARK    2  A    between atoms: C_1  and  C_4 
REMARK    3  A    between atoms: C_5  and  O_10 
ROOT
ATOM      1  C   UNL d   1       7.028 -11.049 -25.213  0.00  0.00     0.070 A 
ATOM      2  C   UNL d   1       7.983 -10.970 -24.190  0.00  0.00     0.082 A 
ATOM      3  C   UNL d   1       8.964  -9.978 -24.214  0.00  0.00     0.037 A 
ATOM      4  C   UNL d   1       9.004  -9.059 -25.261  0.00  0.00     0.003 A 
ATOM      5  C   UNL d   1       8.064  -9.130 -26.287  0.00  0.00     0.001 A 
ATOM      6  C   UNL d   1       7.077 -10.120 -26.264  0.00  0.00     0.021 A 
ENDROOT
BRANCH   1   7
ATOM      7  C   UNL d   1       5.946 -12.063 -25.253  0.00  0.00     0.178 C 
ATOM      8  O   UNL d   1       5.689 -12.877 -24.384  0.00  0.00    -0.646 OA
BRANCH   7   9
ATOM      9  O   UNL d   1       5.227 -12.022 -26.394  0.00  0.00    -0.773 OA
ATOM     10  H   UNL d   1       5.814 -12.475 -27.041  0.00  0.00     0.167 HD
ENDBRANCH   7   9
ENDBRANCH   1   7
BRANCH   2  11
ATOM     11  O   UNL d   1       8.032 -11.829 -23.126  0.00  0.00    -0.360 OA
ATOM     12  H   UNL d   1       7.535 -12.636 -23.378  0.00  0.00     0.217 HD
ENDBRANCH   2  11
TORSDOF 3
ENDMDL
MODEL 4
REMARK VINA RESULT:      -6.0      2.743      4.150
REMARK  3 active torsions:
REMARK  status: ('A' for Active; 'I' for Inactive)
REMARK    1  A    between atoms: C_1  and  O_3 
REMARK    2  A    between atoms: C_1  and  C_4 
REMARK    3  A    between atoms: C_5  and  O_10 
ROOT
ATOM      1  C   UNL d   1       7.424  -9.698 -24.625  0.00  0.00     0.070 A 
ATOM      2  C   UNL d   1       8.013  -9.973 -25.867  0.00  0.00     0.082 A 
ATOM      3  C   UNL d   1       7.485  -9.425 -27.037  0.00  0.00     0.037 A 
ATOM      4  C   UNL d   1       6.361  -8.603 -26.979  0.00  0.00     0.003 A 
ATOM      5  C   UNL d   1       5.762  -8.327 -25.751  0.00  0.00     0.001 A 
ATOM      6  C   UNL d   1       6.291  -8.871 -24.578  0.00  0.00     0.021 A 
ENDROOT
BRANCH   1   7
ATOM      7  C   UNL d   1       7.932 -10.229 -23.337  0.00  0.00     0.178 C 
ATOM      8  O   UNL d   1       8.308  -9.569 -22.384  0.00  0.00    -0.646 OA
BRANCH   7   9
ATOM      9  O   UNL d   1       7.958 -11.577 -23.295  0.00  0.00    -0.773 OA
ATOM     10  H   UNL d   1       7.706 -11.773 -22.365  0.00  0.00     0.167 HD
ENDBRANCH   7   9
ENDBRANCH   1   7
BRANCH   2  11
ATOM     11  O   UNL d   1       9.111 -10.773 -26.028  0.00  0.00    -0.360 OA
ATOM     12  H   UNL d   1       9.320 -11.164 -25.154  0.00  0.00     0.217 HD
ENDBRANCH   2  11
TORSDOF 3
ENDMDL
MODEL 5
REMARK VINA RESULT:      -6.0      1.948      3.610
REMARK  3 active torsions:
REMARK  status: ('A' for Active; 'I' for Inactive)
REMARK    1  A    between atoms: C_1  and  O_3 
REMARK    2  A    between atoms: C_1  and  C_4 
REMARK    3  A    between atoms: C_5  and  O_10 
ROOT
ATOM      1  C   UNL d   1       6.364 -10.677 -25.041  0.00  0.00     0.070 A 
ATOM      2  C   UNL d   1       5.900 -10.911 -26.343  0.00  0.00     0.082 A 
ATOM      3  C   UNL d   1       5.644  -9.843 -27.204  0.00  0.00     0.037 A 
ATOM      4  C   UNL d   1       5.842  -8.533 -26.772  0.00  0.00     0.003 A 
ATOM      5  C   UNL d   1       6.296  -8.287 -25.478  0.00  0.00     0.001 A 
ATOM      6  C   UNL d   1       6.558  -9.354 -24.615  0.00  0.00     0.021 A 
ENDROOT
BRANCH   1   7
ATOM      7  C   UNL d   1       6.673 -11.756 -24.071  0.00  0.00     0.178 C 
ATOM      8  O   UNL d   1       7.600 -11.770 -23.281  0.00  0.00    -0.646 OA
BRANCH   7   9
ATOM      9  O   UNL d   1       5.805 -12.787 -24.134  0.00  0.00    -0.773 OA
ATOM     10  H   UNL d   1       6.397 -13.570 -24.193  0.00  0.00     0.167 HD
ENDBRANCH   7   9
ENDBRANCH   1   7
BRANCH   2  11
ATOM     11  O   UNL d   1       5.668 -12.158 -26.856  0.00  0.00    -0.360 OA
ATOM     12  H   UNL d   1       6.010 -12.810 -26.209  0.00  0.00     0.217 HD
ENDBRANCH   2  11
TORSDOF 3
ENDMDL
MODEL 6
REMARK VINA RESULT:      -6.0      1.452      3.045
REMARK  3 active torsions:
REMARK  status: ('A' for Active; 'I' for Inactive)
REMARK    1  A    between atoms: C_1  and  O_3 
REMARK    2  A    between atoms: C_1  and  C_4 
REMARK    3  A    between atoms: C_5  and  O_10 
ROOT
ATOM      1  C   UNL d   1       7.096 -10.961 -24.887  0.00  0.00     0.070 A 
ATOM      2  C   UNL d   1       8.030 -10.485 -25.817  0.00  0.00     0.082 A 
ATOM      3  C   UNL d   1       9.031  -9.596 -25.423  0.00  0.00     0.037 A 
ATOM      4  C   UNL d   1       9.103  -9.168 -24.099  0.00  0.00     0.003 A 
ATOM      5  C   UNL d   1       8.176  -9.627 -23.165  0.00  0.00     0.001 A 
ATOM      6  C   UNL d   1       7.176 -10.522 -23.556  0.00  0.00     0.021 A 
ENDROOT
BRANCH   1   7
ATOM      7  C   UNL d   1       6.013 -11.918 -25.222  0.00  0.00     0.178 C 
ATOM      8  O   UNL d   1       5.387 -11.961 -26.266  0.00  0.00    -0.646 OA
BRANCH   7   9
ATOM      9  O   UNL d   1       5.749 -12.786 -24.224  0.00  0.00    -0.773 OA
ATOM     10  H   UNL d   1       5.806 -12.223 -23.420  0.00  0.00     0.167 HD
ENDBRANCH   7   9
ENDBRANCH   1   7
BRANCH   2  11
ATOM     11  O   UNL d   1       8.037 -10.840 -27.139  0.00  0.00    -0.360 OA
ATOM     12  H   UNL d   1       8.206 -11.805 -27.182  0.00  0.00     0.217 HD
ENDBRANCH   2  11
TORSDOF 3
ENDMDL
MODEL 7
REMARK VINA RESULT:      -5.9      2.125      3.320
REMARK  3 active torsions:
REMARK  status: ('A' for Active; 'I' for Inactive)
REMARK    1  A    between atoms: C_1  and  O_3 
REMARK    2  A    between atoms: C_1  and  C_4 
REMARK    3  A    between atoms: C_5  and  O_10 
ROOT
ATOM      1  C   UNL d   1       8.346 -10.177 -24.898  0.00  0.00     0.070 A 
ATOM      2  C   UNL d   1       7.757 -10.484 -26.132  0.00  0.00     0.082 A 
ATOM      3  C   UNL d   1       6.775 -11.471 -26.221  0.00  0.00     0.037 A 
ATOM      4  C   UNL d   1       6.376 -12.165 -25.081  0.00  0.00     0.003 A 
ATOM      5  C   UNL d   1       6.959 -11.874 -23.848  0.00  0.00     0.001 A 
ATOM      6  C   UNL d   1       7.939 -10.883 -23.755  0.00  0.00     0.021 A 
ENDROOT
BRANCH   1   7
ATOM      7  C   UNL d   1       9.384  -9.133 -24.717  0.00  0.00     0.178 C 
ATOM      8  O   UNL d   1      10.280  -8.864 -25.498  0.00  0.00    -0.646 OA
BRANCH   7   9
ATOM      9  O   UNL d   1       9.263  -8.464 -23.551  0.00  0.00    -0.773 OA
ATOM     10  H   UNL d   1       8.457  -8.862 -23.152  0.00  0.00     0.167 HD
ENDBRANCH   7   9
ENDBRANCH   1   7
BRANCH   2  11
ATOM     11  O   UNL d   1       8.086  -9.865 -27.307  0.00  0.00    -0.360 OA
ATOM     12  H   UNL d   1       7.908  -8.907 -27.194  0.00  0.00     0.217 HD
ENDBRANCH   2  11
TORSDOF 3
ENDMDL
MODEL 8
REMARK VINA RESULT:      -5.9      1.044      2.724
REMARK  3 active torsions:
REMARK  status: ('A' for Active; 'I' for Inactive)
REMARK    1  A    between atoms: C_1  and  O_3 
REMARK    2  A    between atoms: C_1  and  C_4 
REMARK    3  A    between atoms: C_5  and  O_10 
ROOT
ATOM      1  C   UNL d   1       6.761 -10.569 -26.143  0.00  0.00     0.070 A 
ATOM      2  C   UNL d   1       7.686  -9.654 -26.665  0.00  0.00     0.082 A 
ATOM      3  C   UNL d   1       8.580  -8.994 -25.822  0.00  0.00     0.037 A 
ATOM      4  C   UNL d   1       8.556  -9.237 -24.450  0.00  0.00     0.003 A 
ATOM      5  C   UNL d   1       7.636 -10.139 -23.917  0.00  0.00     0.001 A 
ATOM      6  C   UNL d   1       6.743 -10.805 -24.760  0.00  0.00     0.021 A 
ENDROOT
BRANCH   1   7
ATOM      7  C   UNL d   1       5.788 -11.321 -26.973  0.00  0.00     0.178 C 
ATOM      8  O   UNL d   1       5.564 -11.145 -28.158  0.00  0.00    -0.646 OA
BRANCH   7   9
ATOM      9  O   UNL d   1       5.123 -12.268 -26.279  0.00  0.00    -0.773 OA
ATOM     10  H   UNL d   1       4.812 -12.880 -26.984  0.00  0.00     0.167 HD
ENDBRANCH   7   9
ENDBRANCH   1   7
BRANCH   2  11
ATOM     11  O   UNL d   1       7.782  -9.343 -27.994  0.00  0.00    -0.360 OA
ATOM     12  H   UNL d   1       8.527  -9.863 -28.364  0.00  0.00     0.217 HD
ENDBRANCH   2  11
TORSDOF 3
ENDMDL
MODEL 9
REMARK VINA RESULT:      -5.8      2.218      3.194
REMARK  3 active torsions:
REMARK  status: ('A' for Active; 'I' for Inactive)
REMARK    1  A    between atoms: C_1  and  O_3 
REMARK    2  A    between atoms: C_1  and  C_4 
REMARK    3  A    between atoms: C_5  and  O_10 
ROOT
ATOM      1  C   UNL d   1       6.566  -9.983 -26.377  0.00  0.00     0.070 A 
ATOM      2  C   UNL d   1       7.293 -10.345 -27.520  0.00  0.00     0.082 A 
ATOM      3  C   UNL d   1       7.349 -11.678 -27.929  0.00  0.00     0.037 A 
ATOM      4  C   UNL d   1       6.685 -12.662 -27.199  0.00  0.00     0.003 A 
ATOM      5  C   UNL d   1       5.965 -12.316 -26.057  0.00  0.00     0.001 A 
ATOM      6  C   UNL d   1       5.903 -10.982 -25.648  0.00  0.00     0.021 A 
ENDROOT
BRANCH   1   7
ATOM      7  C   UNL d   1       6.445  -8.589 -25.885  0.00  0.00     0.178 C 
ATOM      8  O   UNL d   1       6.399  -8.238 -24.720  0.00  0.00    -0.646 OA
BRANCH   7   9
ATOM      9  O   UNL d   1       6.378  -7.682 -26.881  0.00  0.00    -0.773 OA
ATOM     10  H   UNL d   1       5.551  -7.931 -27.351  0.00  0.00     0.167 HD
ENDBRANCH   7   9
ENDBRANCH   1   7
BRANCH   2  11
ATOM     11  O   UNL d   1       7.983  -9.455 -28.297  0.00  0.00    -0.360 OA
ATOM     12  H   UNL d   1       8.296  -9.939 -29.090  0.00  0.00     0.217 HD
ENDBRANCH   2  11
TORSDOF 3
ENDMDL
