REMARK  3 active torsions:
REMARK  status: ('A' for Active; 'I' for Inactive)
REMARK    1  A    between atoms: C_1  and  O_3 
REMARK    2  A    between atoms: C_1  and  C_4 
REMARK    3  A    between atoms: C_5  and  O_10 
ROOT
ATOM      1  C   UNL d   1       2.443  -0.135   0.002  0.00  0.00     0.070 A 
ATOM      2  C   UNL d   1       3.171  -1.333   0.018  0.00  0.00     0.082 A 
ATOM      3  C   UNL d   1       4.566  -1.312   0.044  0.00  0.00     0.037 A 
ATOM      4  C   UNL d   1       5.247  -0.096   0.048  0.00  0.00     0.003 A 
ATOM      5  C   UNL d   1       4.535   1.102   0.025  0.00  0.00     0.001 A 
ATOM      6  C   UNL d   1       3.138   1.084   0.004  0.00  0.00     0.021 A 
ENDROOT
BRANCH   1   7
ATOM      7  C   UNL d   1       0.961  -0.072  -0.011  0.00  0.00     0.178 C 
ATOM      8  O   UNL d   1       0.283   0.940  -0.025  0.00  0.00    -0.646 OA
BRANCH   7   9
ATOM      9  O   UNL d   1       0.381  -1.290   0.002  0.00  0.00    -0.773 OA
ATOM     10  H   UNL d   1      -0.579  -1.077   0.009  0.00  0.00     0.167 HD
ENDBRANCH   7   9
ENDBRANCH   1   7
BRANCH   2  11
ATOM     11  O   UNL d   1       2.595  -2.574   0.008  0.00  0.00    -0.360 OA
ATOM     12  H   UNL d   1       1.623  -2.446  -0.017  0.00  0.00     0.217 HD
ENDBRANCH   2  11
TORSDOF 3
