@<TRIPOS>MOLECULE
SAL
 16 16 0 0 0
SMALL
GASTEIGER

@<TRIPOS>ATOM
      1 C           0.9605   -0.0718   -0.0106 C.2     1  UNL1        0.3404
      2 O           0.2834    0.9396   -0.0246 O.2     1  UNL1       -0.2450
      3 O           0.3812   -1.2903    0.0022 O.3     1  UNL1       -0.4770
      4 C           2.4429   -0.1349    0.0024 C.ar    1  UNL1        0.1001
      5 C           3.1714   -1.3327    0.0183 C.ar    1  UNL1        0.1308
      6 C           4.5655   -1.3121    0.0441 C.ar    1  UNL1       -0.0194
      7 C           5.2475   -0.0956    0.0480 C.ar    1  UNL1       -0.0583
      8 C           4.5354    1.1024    0.0248 C.ar    1  UNL1       -0.0608
      9 C           3.1384    1.0841    0.0035 C.ar    1  UNL1       -0.0442
     10 O           2.5952   -2.5739    0.0079 O.3     1  UNL1       -0.5059
     11 H          -0.5792   -1.0772    0.0086 H       1  UNL1        0.2954
     12 H           5.1193   -2.2473    0.0614 H       1  UNL1        0.0654
     13 H           6.3345   -0.0844    0.0683 H       1  UNL1        0.0619
     14 H           5.0672    2.0509    0.0248 H       1  UNL1        0.0618
     15 H           2.5945    2.0271   -0.0118 H       1  UNL1        0.0627
     16 H           1.6233   -2.4458   -0.0169 H       1  UNL1        0.2922
@<TRIPOS>BOND
     1     1     2    2
     2     1     3    1
     3     1     4    1
     4     3    11    1
     5     4     5   ar
     6     4     9   ar
     7     5     6   ar
     8     5    10    1
     9     6     7   ar
    10     6    12    1
    11     7     8   ar
    12     7    13    1
    13     8     9   ar
    14     8    14    1
    15     9    15    1
    16    10    16    1
