MODEL 1
REMARK VINA RESULT:      -4.0      0.000      0.000
REMARK  2 active torsions:
REMARK  status: ('A' for Active; 'I' for Inactive)
REMARK    1  A    between atoms: C_1  and  O_3 
REMARK    2  A    between atoms: C_1  and  C_4 
ROOT
ATOM      1  C   UNL d   1       7.670 -10.750 -27.600  0.00  0.00     0.213 C 
ATOM      2  O   UNL d   1       8.668 -11.250 -27.120  0.00  0.00    -0.644 OA
ENDROOT
BRANCH   1   3
ATOM      3  O   UNL d   1       7.664  -9.527 -28.138  0.00  0.00    -0.771 OA
ATOM      4  H   UNL d   1       8.242  -9.583 -28.925  0.00  0.00     0.168 HD
ENDBRANCH   1   3
BRANCH   1   5
ATOM      5  C   UNL d   1       6.299 -11.450 -27.650  0.00  0.00     0.218 C 
ATOM      6  O   UNL d   1       5.759 -11.700 -28.718  0.00  0.00    -0.286 OA
ATOM      7  C   UNL d   1       5.691 -11.795 -26.323  0.00  0.00     0.103 C 
ENDBRANCH   1   5
TORSDOF 2
ENDMDL
MODEL 2
REMARK VINA RESULT:      -4.0      1.158      2.602
REMARK  2 active torsions:
REMARK  status: ('A' for Active; 'I' for Inactive)
REMARK    1  A    between atoms: C_1  and  O_3 
REMARK    2  A    between atoms: C_1  and  C_4 
ROOT
ATOM      1  C   UNL d   1       6.157 -11.698 -27.634  0.00  0.00     0.213 C 
ATOM      2  O   UNL d   1       5.474 -12.064 -26.698  0.00  0.00    -0.644 OA
ENDROOT
BRANCH   1   3
ATOM      3  O   UNL d   1       5.734 -11.756 -28.901  0.00  0.00    -0.771 OA
ATOM      4  H   UNL d   1       6.246 -12.478 -29.316  0.00  0.00     0.168 HD
ENDBRANCH   1   3
BRANCH   1   5
ATOM      5  C   UNL d   1       7.580 -11.129 -27.487  0.00  0.00     0.218 C 
ATOM      6  O   UNL d   1       7.932 -10.143 -28.121  0.00  0.00    -0.286 OA
ATOM      7  C   UNL d   1       8.481 -11.854 -26.533  0.00  0.00     0.103 C 
ENDBRANCH   1   5
TORSDOF 2
ENDMDL
MODEL 3
REMARK VINA RESULT:      -3.8      1.497      2.017
REMARK  2 active torsions:
REMARK  status: ('A' for Active; 'I' for Inactive)
REMARK    1  A    between atoms: C_1  and  O_3 
REMARK    2  A    between atoms: C_1  and  C_4 
ROOT
ATOM      1  C   UNL d   1       6.809 -11.549 -27.858  0.00  0.00     0.213 C 
ATOM      2  O   UNL d   1       7.922 -11.167 -28.160  0.00  0.00    -0.644 OA
ENDROOT
BRANCH   1   3
ATOM      3  O   UNL d   1       5.843 -11.744 -28.762  0.00  0.00    -0.771 OA
ATOM      4  H   UNL d   1       6.276 -12.190 -29.517  0.00  0.00     0.168 HD
ENDBRANCH   1   3
BRANCH   1   5
ATOM      5  C   UNL d   1       6.368 -11.856 -26.414  0.00  0.00     0.218 C 
ATOM      6  O   UNL d   1       5.214 -12.175 -26.163  0.00  0.00    -0.286 OA
ATOM      7  C   UNL d   1       7.433 -11.738 -25.365  0.00  0.00     0.103 C 
ENDBRANCH   1   5
TORSDOF 2
ENDMDL
MODEL 4
REMARK VINA RESULT:      -3.8      3.204      4.259
REMARK  2 active torsions:
REMARK  status: ('A' for Active; 'I' for Inactive)
REMARK    1  A    between atoms: C_1  and  O_3 
REMARK    2  A    between atoms: C_1  and  C_4 
ROOT
ATOM      1  C   UNL d   1       6.267 -11.625 -24.875  0.00  0.00     0.213 C 
ATOM      2  O   UNL d   1       5.734 -10.925 -25.713  0.00  0.00    -0.644 OA
ENDROOT
BRANCH   1   3
ATOM      3  O   UNL d   1       5.666 -12.691 -24.338  0.00  0.00    -0.771 OA
ATOM      4  H   UNL d   1       5.090 -13.051 -25.042  0.00  0.00     0.168 HD
ENDBRANCH   1   3
BRANCH   1   5
ATOM      5  C   UNL d   1       7.685 -11.379 -24.327  0.00  0.00     0.218 C 
ATOM      6  O   UNL d   1       7.981 -11.695 -23.184  0.00  0.00    -0.286 OA
ATOM      7  C   UNL d   1       8.653 -10.738 -25.277  0.00  0.00     0.103 C 
ENDBRANCH   1   5
TORSDOF 2
ENDMDL
MODEL 5
REMARK VINA RESULT:      -3.7      3.032      3.784
REMARK  2 active torsions:
REMARK  status: ('A' for Active; 'I' for Inactive)
REMARK    1  A    between atoms: C_1  and  O_3 
REMARK    2  A    between atoms: C_1  and  C_4 
ROOT
ATOM      1  C   UNL d   1       6.809 -11.906 -24.234  0.00  0.00     0.213 C 
ATOM      2  O   UNL d   1       5.781 -12.552 -24.186  0.00  0.00    -0.644 OA
ENDROOT
BRANCH   1   3
ATOM      3  O   UNL d   1       7.586 -11.705 -23.165  0.00  0.00    -0.771 OA
ATOM      4  H   UNL d   1       7.670 -10.734 -23.080  0.00  0.00     0.168 HD
ENDBRANCH   1   3
BRANCH   1   5
ATOM      5  C   UNL d   1       7.344 -11.240 -25.516  0.00  0.00     0.218 C 
ATOM      6  O   UNL d   1       6.723 -10.340 -26.064  0.00  0.00    -0.286 OA
ATOM      7  C   UNL d   1       8.653 -11.763 -26.029  0.00  0.00     0.103 C 
ENDBRANCH   1   5
TORSDOF 2
ENDMDL
MODEL 6
REMARK VINA RESULT:      -3.7      3.172      4.077
REMARK  2 active torsions:
REMARK  status: ('A' for Active; 'I' for Inactive)
REMARK    1  A    between atoms: C_1  and  O_3 
REMARK    2  A    between atoms: C_1  and  C_4 
ROOT
ATOM      1  C   UNL d   1       7.809 -10.956 -24.169  0.00  0.00     0.213 C 
ATOM      2  O   UNL d   1       8.036 -11.691 -23.229  0.00  0.00    -0.644 OA
ENDROOT
BRANCH   1   3
ATOM      3  O   UNL d   1       6.585 -10.495 -24.445  0.00  0.00    -0.771 OA
ATOM      4  H   UNL d   1       6.257 -10.104 -23.610  0.00  0.00     0.168 HD
ENDBRANCH   1   3
BRANCH   1   5
ATOM      5  C   UNL d   1       8.886 -10.467 -25.156  0.00  0.00     0.218 C 
ATOM      6  O   UNL d   1       9.124 -11.084 -26.185  0.00  0.00    -0.286 OA
ATOM      7  C   UNL d   1       9.602  -9.206 -24.772  0.00  0.00     0.103 C 
ENDBRANCH   1   5
TORSDOF 2
ENDMDL
MODEL 7
REMARK VINA RESULT:      -3.7      2.916      3.373
REMARK  2 active torsions:
REMARK  status: ('A' for Active; 'I' for Inactive)
REMARK    1  A    between atoms: C_1  and  O_3 
REMARK    2  A    between atoms: C_1  and  C_4 
ROOT
ATOM      1  C   UNL d   1       7.535 -11.432 -24.314  0.00  0.00     0.213 C 
ATOM      2  O   UNL d   1       7.916 -11.504 -23.163  0.00  0.00    -0.644 OA
ENDROOT
BRANCH   1   3
ATOM      3  O   UNL d   1       8.181 -10.722 -25.244  0.00  0.00    -0.771 OA
ATOM      4  H   UNL d   1       8.885 -10.240 -24.765  0.00  0.00     0.168 HD
ENDBRANCH   1   3
BRANCH   1   5
ATOM      5  C   UNL d   1       6.274 -12.139 -24.847  0.00  0.00     0.218 C 
ATOM      6  O   UNL d   1       5.701 -12.990 -24.182  0.00  0.00    -0.286 OA
ATOM      7  C   UNL d   1       5.812 -11.715 -26.209  0.00  0.00     0.103 C 
ENDBRANCH   1   5
TORSDOF 2
ENDMDL
MODEL 8
REMARK VINA RESULT:      -3.7      3.358      4.046
REMARK  2 active torsions:
REMARK  status: ('A' for Active; 'I' for Inactive)
REMARK    1  A    between atoms: C_1  and  O_3 
REMARK    2  A    between atoms: C_1  and  C_4 
ROOT
ATOM      1  C   UNL d   1       9.104  -9.879 -25.188  0.00  0.00     0.213 C 
ATOM      2  O   UNL d   1       9.122 -10.823 -25.954  0.00  0.00    -0.644 OA
ENDROOT
BRANCH   1   3
ATOM      3  O   UNL d   1      10.009  -8.897 -25.234  0.00  0.00    -0.771 OA
ATOM      4  H   UNL d   1      10.795  -9.283 -25.669  0.00  0.00     0.168 HD
ENDBRANCH   1   3
BRANCH   1   5
ATOM      5  C   UNL d   1       8.052  -9.694 -24.078  0.00  0.00     0.218 C 
ATOM      6  O   UNL d   1       8.249 -10.118 -22.948  0.00  0.00    -0.286 OA
ATOM      7  C   UNL d   1       6.799  -8.973 -24.477  0.00  0.00     0.103 C 
ENDBRANCH   1   5
TORSDOF 2
ENDMDL
MODEL 9
REMARK VINA RESULT:      -3.7      2.570      3.567
REMARK  2 active torsions:
REMARK  status: ('A' for Active; 'I' for Inactive)
REMARK    1  A    between atoms: C_1  and  O_3 
REMARK    2  A    between atoms: C_1  and  C_4 
ROOT
ATOM      1  C   UNL d   1       6.033 -12.180 -25.340  0.00  0.00     0.213 C 
ATOM      2  O   UNL d   1       5.731 -12.792 -24.335  0.00  0.00    -0.644 OA
ENDROOT
BRANCH   1   3
ATOM      3  O   UNL d   1       5.220 -12.081 -26.396  0.00  0.00    -0.771 OA
ATOM      4  H   UNL d   1       4.463 -12.669 -26.202  0.00  0.00     0.168 HD
ENDBRANCH   1   3
BRANCH   1   5
ATOM      5  C   UNL d   1       7.376 -11.448 -25.528  0.00  0.00     0.218 C 
ATOM      6  O   UNL d   1       7.605 -10.397 -24.947  0.00  0.00    -0.286 OA
ATOM      7  C   UNL d   1       8.357 -12.106 -26.452  0.00  0.00     0.103 C 
ENDBRANCH   1   5
TORSDOF 2
ENDMDL
