@<TRIPOS>MOLECULE
PYR
 10 9 0 0 0
SMALL
GASTEIGER

@<TRIPOS>ATOM
      1 C           0.9143   -0.0433   -0.0594 C.2     1  UNL1        0.3723
      2 O           0.2572   -0.2632    0.9390 O.2     1  UNL1       -0.2419
      3 O           0.3573    0.2179   -1.2464 O.3     1  UNL1       -0.4751
      4 C           2.4536   -0.0368   -0.0890 C.2     1  UNL1        0.2360
      5 O           3.0618    0.1928   -1.1251 O.2     1  UNL1       -0.2854
      6 C           3.1364   -0.3257    1.2148 C.3     1  UNL1        0.0052
      7 H          -0.6086    0.1848   -1.0959 H       1  UNL1        0.2955
      8 H           2.8677    0.4295    1.9557 H       1  UNL1        0.0311
      9 H           2.8676   -1.3234    1.5672 H       1  UNL1        0.0311
     10 H           4.2212   -0.2926    1.0653 H       1  UNL1        0.0311
@<TRIPOS>BOND
     1     1     2    2
     2     1     3    1
     3     1     4    1
     4     3     7    1
     5     4     5    2
     6     4     6    1
     7     6     8    1
     8     6     9    1
     9     6    10    1
