SAL
  -OEChem-12162215293D

 16 16  0     0  0  0  0  0  0999 V2000
   73.0410   -6.5800   39.6370 C   0  0  0  0  0  0  0  0  0  0  0  0
   74.0800   -7.0310   39.1730 O   0  0  0  0  0  0  0  0  0  0  0  0
   72.8310   -6.8840   40.8050 O   0  0  0  0  0  0  0  0  0  0  0  0
   72.1380   -5.7660   38.8900 C   0  0  0  0  0  0  0  0  0  0  0  0
   72.3410   -5.3960   37.5340 C   0  0  0  0  0  0  0  0  0  0  0  0
   71.4270   -4.5840   36.7940 C   0  0  0  0  0  0  0  0  0  0  0  0
   70.2670   -4.1320   37.4440 C   0  0  0  0  0  0  0  0  0  0  0  0
   69.9950   -4.4590   38.7950 C   0  0  0  0  0  0  0  0  0  0  0  0
   70.9390   -5.2770   39.5040 C   0  0  0  0  0  0  0  0  0  0  0  0
   73.4330   -5.7930   36.8400 O   0  0  0  0  0  0  0  0  0  0  0  0
   72.0240   -6.5340   41.1650 H   0  0  0  0  0  0  0  0  0  0  0  0
   71.6130   -4.3110   35.7410 H   0  0  0  0  0  0  0  0  0  0  0  0
   69.5530   -3.5060   36.8810 H   0  0  0  0  0  0  0  0  0  0  0  0
   69.0760   -4.0880   39.2800 H   0  0  0  0  0  0  0  0  0  0  0  0
   70.7360   -5.5380   40.5560 H   0  0  0  0  0  0  0  0  0  0  0  0
   73.5680   -5.5450   35.9320 H   0  0  0  0  0  0  0  0  0  0  0  0
  1  2  2  0  0  0  0
  1  3  1  0  0  0  0
  1  4  1  0  0  0  0
  3 11  1  0  0  0  0
  4  5  1  0  0  0  0
  4  9  2  0  0  0  0
  5  6  2  0  0  0  0
  5 10  1  0  0  0  0
  6  7  1  0  0  0  0
  6 12  1  0  0  0  0
  7  8  2  0  0  0  0
  7 13  1  0  0  0  0
  8  9  1  0  0  0  0
  8 14  1  0  0  0  0
  9 15  1  0  0  0  0
 10 16  1  0  0  0  0
M  END
> <OPENEYE_ISO_SMILES>
c1ccc(c(c1)C(=O)O)O

> <OPENEYE_INCHI>
InChI=1S/C7H6O3/c8-6-4-2-1-3-5(6)7(9)10/h1-4,8H,(H,9,10)

> <OPENEYE_INCHIKEY>
YGSDEFSMJLZEOE-UHFFFAOYSA-N

> <FORMULA>
C7H6O3

$$$$
