MODEL 1
REMARK VINA RESULT:      -6.4      0.000      0.000
REMARK  9 active torsions:
REMARK  status: ('A' for Active; 'I' for Inactive)
REMARK    1  A    between atoms: C_1  and  C_5 
REMARK    2  A    between atoms: C_7  and  C_5 
REMARK    3  A    between atoms: C_7  and  N_15 
REMARK    4  A    between atoms: C_7  and  C_8 
REMARK    5  A    between atoms: C_8  and  C_9 
REMARK       I    between atoms: N_15  and  C_16 
REMARK    6  A    between atoms: C_16  and  C_18 
REMARK    7  A    between atoms: C_18  and  N_19 
REMARK    8  A    between atoms: C_18  and  C_23 
REMARK       I    between atoms: N_19  and  C_20 
REMARK    9  A    between atoms: C_23  and  C_24 
ROOT
ATOM      1  C   UNL d   1      36.526  75.406  89.802  0.00  0.00     0.168 C 
ENDROOT
BRANCH   1   2
ATOM      2  N   UNL d   1      35.460  75.191  88.821  0.00  0.00    -0.347 N 
ATOM      3  C   UNL d   1      35.749  74.956  87.494  0.00  0.00     0.241 C 
ATOM      4  O   UNL d   1      36.900  74.916  87.071  0.00  0.00    -0.271 OA
ATOM      5  H   UNL d   1      34.566  75.655  88.987  0.00  0.00     0.163 HD
BRANCH   3   6
ATOM      6  C   UNL d   1      34.493  74.876  86.607  0.00  0.00     0.177 C 
BRANCH   6   7
ATOM      7  N   UNL d   1      34.624  75.876  85.547  0.00  0.00    -0.348 N 
ATOM      8  C   UNL d   1      33.609  76.764  85.286  0.00  0.00     0.214 C 
ATOM      9  O   UNL d   1      33.676  77.608  84.398  0.00  0.00    -0.274 OA
ATOM     10  C   UNL d   1      32.401  76.606  86.170  0.00  0.00     0.117 C 
ATOM     11  H   UNL d   1      35.560  76.105  85.234  0.00  0.00     0.163 HD
ENDBRANCH   6   7
BRANCH   6  12
ATOM     12  C   UNL d   1      34.309  73.489  85.990  0.00  0.00     0.038 C 
BRANCH  12  13
ATOM     13  C   UNL d   1      33.516  72.490  86.858  0.00  0.00    -0.020 C 
ATOM     14  C   UNL d   1      34.415  71.623  87.741  0.00  0.00     0.009 C 
ATOM     15  C   UNL d   1      32.518  73.258  87.728  0.00  0.00     0.009 C 
ENDBRANCH  12  13
ENDBRANCH   6  12
ENDBRANCH   3   6
ENDBRANCH   1   2
BRANCH   1  16
ATOM     16  C   UNL d   1      36.472  76.837  90.362  0.00  0.00     0.072 C 
BRANCH  16  17
ATOM     17  C   UNL d   1      37.814  77.448  90.708  0.00  0.00    -0.056 A 
ATOM     18  C   UNL d   1      38.174  77.599  92.056  0.00  0.00     0.007 A 
ATOM     19  C   UNL d   1      39.411  78.140  92.408  0.00  0.00     0.001 A 
ATOM     20  C   UNL d   1      40.308  78.534  91.417  0.00  0.00     0.000 A 
ATOM     21  C   UNL d   1      39.970  78.379  90.077  0.00  0.00     0.001 A 
ATOM     22  C   UNL d   1      38.736  77.831  89.723  0.00  0.00     0.007 A 
ENDBRANCH  16  17
ENDBRANCH   1  16
BRANCH   1  23
ATOM     23  C   UNL d   1      36.385  74.434  90.983  0.00  0.00     0.255 C 
ATOM     24  O   UNL d   1      36.060  74.818  92.111  0.00  0.00    -0.286 OA
BRANCH  23  25
ATOM     25  C   UNL d   1      36.769  72.995  90.681  0.00  0.00     0.453 C 
ATOM     26  F   UNL d   1      37.719  72.510  91.527  0.00  0.00    -0.163 F 
ATOM     27  F   UNL d   1      35.705  72.150  90.804  0.00  0.00    -0.163 F 
ATOM     28  F   UNL d   1      37.254  72.824  89.423  0.00  0.00    -0.163 F 
ENDBRANCH  23  25
ENDBRANCH   1  23
TORSDOF 9
ENDMDL
MODEL 2
REMARK VINA RESULT:      -6.4      2.712      4.639
REMARK  9 active torsions:
REMARK  status: ('A' for Active; 'I' for Inactive)
REMARK    1  A    between atoms: C_1  and  C_5 
REMARK    2  A    between atoms: C_7  and  C_5 
REMARK    3  A    between atoms: C_7  and  N_15 
REMARK    4  A    between atoms: C_7  and  C_8 
REMARK    5  A    between atoms: C_8  and  C_9 
REMARK       I    between atoms: N_15  and  C_16 
REMARK    6  A    between atoms: C_16  and  C_18 
REMARK    7  A    between atoms: C_18  and  N_19 
REMARK    8  A    between atoms: C_18  and  C_23 
REMARK       I    between atoms: N_19  and  C_20 
REMARK    9  A    between atoms: C_23  and  C_24 
ROOT
ATOM      1  C   UNL d   1      36.737  76.180  90.362  0.00  0.00     0.168 C 
ENDROOT
BRANCH   1   2
ATOM      2  N   UNL d   1      36.775  75.285  89.204  0.00  0.00    -0.347 N 
ATOM      3  C   UNL d   1      35.684  75.148  88.372  0.00  0.00     0.241 C 
ATOM      4  O   UNL d   1      34.638  75.761  88.558  0.00  0.00    -0.271 OA
ATOM      5  H   UNL d   1      37.369  74.456  89.266  0.00  0.00     0.163 HD
BRANCH   3   6
ATOM      6  C   UNL d   1      35.881  74.073  87.287  0.00  0.00     0.177 C 
BRANCH   6   7
ATOM      7  N   UNL d   1      35.753  74.721  85.981  0.00  0.00    -0.348 N 
ATOM      8  C   UNL d   1      34.623  74.550  85.218  0.00  0.00     0.214 C 
ATOM      9  O   UNL d   1      34.484  75.066  84.113  0.00  0.00    -0.274 OA
ATOM     10  C   UNL d   1      33.578  73.665  85.842  0.00  0.00     0.117 C 
ATOM     11  H   UNL d   1      36.347  75.521  85.797  0.00  0.00     0.163 HD
ENDBRANCH   6   7
BRANCH   6  12
ATOM     12  C   UNL d   1      37.244  73.388  87.394  0.00  0.00     0.038 C 
BRANCH  12  13
ATOM     13  C   UNL d   1      37.197  71.907  87.822  0.00  0.00    -0.020 C 
ATOM     14  C   UNL d   1      35.787  71.315  87.766  0.00  0.00     0.009 C 
ATOM     15  C   UNL d   1      38.137  71.093  86.929  0.00  0.00     0.009 C 
ENDBRANCH  12  13
ENDBRANCH   6  12
ENDBRANCH   3   6
ENDBRANCH   1   2
BRANCH   1  16
ATOM     16  C   UNL d   1      36.761  75.377  91.673  0.00  0.00     0.072 C 
BRANCH  16  17
ATOM     17  C   UNL d   1      36.145  73.995  91.597  0.00  0.00    -0.056 A 
ATOM     18  C   UNL d   1      36.981  72.874  91.492  0.00  0.00     0.007 A 
ATOM     19  C   UNL d   1      36.445  71.586  91.441  0.00  0.00     0.001 A 
ATOM     20  C   UNL d   1      35.066  71.401  91.497  0.00  0.00     0.000 A 
ATOM     21  C   UNL d   1      34.225  72.503  91.613  0.00  0.00     0.001 A 
ATOM     22  C   UNL d   1      34.759  73.791  91.673  0.00  0.00     0.007 A 
ENDBRANCH  16  17
ENDBRANCH   1  16
BRANCH   1  23
ATOM     23  C   UNL d   1      37.952  77.119  90.364  0.00  0.00     0.255 C 
ATOM     24  O   UNL d   1      38.637  77.301  91.376  0.00  0.00    -0.286 OA
BRANCH  23  25
ATOM     25  C   UNL d   1      38.183  77.876  89.067  0.00  0.00     0.453 C 
ATOM     26  F   UNL d   1      38.627  79.148  89.266  0.00  0.00    -0.163 F 
ATOM     27  F   UNL d   1      39.130  77.275  88.291  0.00  0.00    -0.163 F 
ATOM     28  F   UNL d   1      37.064  77.977  88.302  0.00  0.00    -0.163 F 
ENDBRANCH  23  25
ENDBRANCH   1  23
TORSDOF 9
ENDMDL
MODEL 3
REMARK VINA RESULT:      -6.2      1.379      2.737
REMARK  9 active torsions:
REMARK  status: ('A' for Active; 'I' for Inactive)
REMARK    1  A    between atoms: C_1  and  C_5 
REMARK    2  A    between atoms: C_7  and  C_5 
REMARK    3  A    between atoms: C_7  and  N_15 
REMARK    4  A    between atoms: C_7  and  C_8 
REMARK    5  A    between atoms: C_8  and  C_9 
REMARK       I    between atoms: N_15  and  C_16 
REMARK    6  A    between atoms: C_16  and  C_18 
REMARK    7  A    between atoms: C_18  and  N_19 
REMARK    8  A    between atoms: C_18  and  C_23 
REMARK       I    between atoms: N_19  and  C_20 
REMARK    9  A    between atoms: C_23  and  C_24 
ROOT
ATOM      1  C   UNL d   1      36.502  75.546  89.809  0.00  0.00     0.168 C 
ENDROOT
BRANCH   1   2
ATOM      2  N   UNL d   1      35.377  75.394  88.884  0.00  0.00    -0.347 N 
ATOM      3  C   UNL d   1      35.584  75.129  87.547  0.00  0.00     0.241 C 
ATOM      4  O   UNL d   1      36.707  75.010  87.069  0.00  0.00    -0.271 OA
ATOM      5  H   UNL d   1      34.524  75.917  89.088  0.00  0.00     0.163 HD
BRANCH   3   6
ATOM      6  C   UNL d   1      34.283  75.125  86.723  0.00  0.00     0.177 C 
BRANCH   6   7
ATOM      7  N   UNL d   1      33.203  74.645  87.587  0.00  0.00    -0.348 N 
ATOM      8  C   UNL d   1      32.530  73.484  87.294  0.00  0.00     0.214 C 
ATOM      9  O   UNL d   1      31.611  73.056  87.986  0.00  0.00    -0.274 OA
ATOM     10  C   UNL d   1      33.002  72.787  86.046  0.00  0.00     0.117 C 
ATOM     11  H   UNL d   1      33.174  74.996  88.536  0.00  0.00     0.163 HD
ENDBRANCH   6   7
BRANCH   6  12
ATOM     12  C   UNL d   1      33.936  76.512  86.183  0.00  0.00     0.038 C 
BRANCH  12  13
ATOM     13  C   UNL d   1      33.583  76.558  84.682  0.00  0.00    -0.020 C 
ATOM     14  C   UNL d   1      34.349  75.521  83.858  0.00  0.00     0.009 C 
ATOM     15  C   UNL d   1      32.077  76.347  84.512  0.00  0.00     0.009 C 
ENDBRANCH  12  13
ENDBRANCH   6  12
ENDBRANCH   3   6
ENDBRANCH   1   2
BRANCH   1  16
ATOM     16  C   UNL d   1      36.505  76.948  90.438  0.00  0.00     0.072 C 
BRANCH  16  17
ATOM     17  C   UNL d   1      37.870  77.488  90.812  0.00  0.00    -0.056 A 
ATOM     18  C   UNL d   1      38.755  77.883  89.797  0.00  0.00     0.007 A 
ATOM     19  C   UNL d   1      40.012  78.403  90.109  0.00  0.00     0.001 A 
ATOM     20  C   UNL d   1      40.401  78.539  91.440  0.00  0.00     0.000 A 
ATOM     21  C   UNL d   1      39.529  78.162  92.456  0.00  0.00     0.001 A 
ATOM     22  C   UNL d   1      38.269  77.650  92.147  0.00  0.00     0.007 A 
ENDBRANCH  16  17
ENDBRANCH   1  16
BRANCH   1  23
ATOM     23  C   UNL d   1      36.415  74.520  90.947  0.00  0.00     0.255 C 
ATOM     24  O   UNL d   1      36.138  74.849  92.105  0.00  0.00    -0.286 OA
BRANCH  23  25
ATOM     25  C   UNL d   1      36.788  73.098  90.563  0.00  0.00     0.453 C 
ATOM     26  F   UNL d   1      37.360  73.013  89.331  0.00  0.00    -0.163 F 
ATOM     27  F   UNL d   1      37.699  72.563  91.426  0.00  0.00    -0.163 F 
ATOM     28  F   UNL d   1      35.725  72.252  90.551  0.00  0.00    -0.163 F 
ENDBRANCH  23  25
ENDBRANCH   1  23
TORSDOF 9
ENDMDL
MODEL 4
REMARK VINA RESULT:      -6.1      1.402      2.083
REMARK  9 active torsions:
REMARK  status: ('A' for Active; 'I' for Inactive)
REMARK    1  A    between atoms: C_1  and  C_5 
REMARK    2  A    between atoms: C_7  and  C_5 
REMARK    3  A    between atoms: C_7  and  N_15 
REMARK    4  A    between atoms: C_7  and  C_8 
REMARK    5  A    between atoms: C_8  and  C_9 
REMARK       I    between atoms: N_15  and  C_16 
REMARK    6  A    between atoms: C_16  and  C_18 
REMARK    7  A    between atoms: C_18  and  N_19 
REMARK    8  A    between atoms: C_18  and  C_23 
REMARK       I    between atoms: N_19  and  C_20 
REMARK    9  A    between atoms: C_23  and  C_24 
ROOT
ATOM      1  C   UNL d   1      35.801  75.081  89.520  0.00  0.00     0.168 C 
ENDROOT
BRANCH   1   2
ATOM      2  N   UNL d   1      34.905  74.931  88.371  0.00  0.00    -0.347 N 
ATOM      3  C   UNL d   1      35.399  74.682  87.109  0.00  0.00     0.241 C 
ATOM      4  O   UNL d   1      36.601  74.574  86.885  0.00  0.00    -0.271 OA
ATOM      5  H   UNL d   1      34.024  75.447  88.389  0.00  0.00     0.163 HD
BRANCH   3   6
ATOM      6  C   UNL d   1      34.309  74.679  86.022  0.00  0.00     0.177 C 
BRANCH   6   7
ATOM      7  N   UNL d   1      34.594  75.773  85.093  0.00  0.00    -0.348 N 
ATOM      8  C   UNL d   1      33.732  76.836  84.970  0.00  0.00     0.214 C 
ATOM      9  O   UNL d   1      33.930  77.765  84.193  0.00  0.00    -0.274 OA
ATOM     10  C   UNL d   1      32.517  76.758  85.856  0.00  0.00     0.117 C 
ATOM     11  H   UNL d   1      35.553  75.889  84.789  0.00  0.00     0.163 HD
ENDBRANCH   6   7
BRANCH   6  12
ATOM     12  C   UNL d   1      34.255  73.354  85.261  0.00  0.00     0.038 C 
BRANCH  12  13
ATOM     13  C   UNL d   1      33.096  73.228  84.251  0.00  0.00    -0.020 C 
ATOM     14  C   UNL d   1      33.578  73.075  82.808  0.00  0.00     0.009 C 
ATOM     15  C   UNL d   1      32.219  72.034  84.636  0.00  0.00     0.009 C 
ENDBRANCH  12  13
ENDBRANCH   6  12
ENDBRANCH   3   6
ENDBRANCH   1   2
BRANCH   1  16
ATOM     16  C   UNL d   1      35.893  76.553  89.953  0.00  0.00     0.072 C 
BRANCH  16  17
ATOM     17  C   UNL d   1      37.293  77.128  89.998  0.00  0.00    -0.056 A 
ATOM     18  C   UNL d   1      38.029  77.242  88.809  0.00  0.00     0.007 A 
ATOM     19  C   UNL d   1      39.314  77.787  88.815  0.00  0.00     0.001 A 
ATOM     20  C   UNL d   1      39.880  78.228  90.009  0.00  0.00     0.000 A 
ATOM     21  C   UNL d   1      39.158  78.132  91.194  0.00  0.00     0.001 A 
ATOM     22  C   UNL d   1      37.869  77.595  91.189  0.00  0.00     0.007 A 
ENDBRANCH  16  17
ENDBRANCH   1  16
BRANCH   1  23
ATOM     23  C   UNL d   1      35.290  74.269  90.719  0.00  0.00     0.255 C 
ATOM     24  O   UNL d   1      34.084  74.086  90.919  0.00  0.00    -0.286 OA
BRANCH  23  25
ATOM     25  C   UNL d   1      36.364  73.799  91.684  0.00  0.00     0.453 C 
ATOM     26  F   UNL d   1      35.950  72.780  92.487  0.00  0.00    -0.163 F 
ATOM     27  F   UNL d   1      37.462  73.323  91.028  0.00  0.00    -0.163 F 
ATOM     28  F   UNL d   1      36.806  74.782  92.512  0.00  0.00    -0.163 F 
ENDBRANCH  23  25
ENDBRANCH   1  23
TORSDOF 9
ENDMDL
MODEL 5
REMARK VINA RESULT:      -6.1      2.987      6.931
REMARK  9 active torsions:
REMARK  status: ('A' for Active; 'I' for Inactive)
REMARK    1  A    between atoms: C_1  and  C_5 
REMARK    2  A    between atoms: C_7  and  C_5 
REMARK    3  A    between atoms: C_7  and  N_15 
REMARK    4  A    between atoms: C_7  and  C_8 
REMARK    5  A    between atoms: C_8  and  C_9 
REMARK       I    between atoms: N_15  and  C_16 
REMARK    6  A    between atoms: C_16  and  C_18 
REMARK    7  A    between atoms: C_18  and  N_19 
REMARK    8  A    between atoms: C_18  and  C_23 
REMARK       I    between atoms: N_19  and  C_20 
REMARK    9  A    between atoms: C_23  and  C_24 
ROOT
ATOM      1  C   UNL d   1      34.898  75.052  86.466  0.00  0.00     0.168 C 
ENDROOT
BRANCH   1   2
ATOM      2  N   UNL d   1      35.058  75.337  87.893  0.00  0.00    -0.347 N 
ATOM      3  C   UNL d   1      36.224  75.884  88.385  0.00  0.00     0.241 C 
ATOM      4  O   UNL d   1      37.175  76.158  87.661  0.00  0.00    -0.271 OA
ATOM      5  H   UNL d   1      34.557  74.739  88.553  0.00  0.00     0.163 HD
BRANCH   3   6
ATOM      6  C   UNL d   1      36.240  75.994  89.921  0.00  0.00     0.177 C 
BRANCH   6   7
ATOM      7  N   UNL d   1      37.108  74.937  90.440  0.00  0.00    -0.348 N 
ATOM      8  C   UNL d   1      36.590  73.890  91.163  0.00  0.00     0.214 C 
ATOM      9  O   UNL d   1      37.287  72.992  91.626  0.00  0.00    -0.274 OA
ATOM     10  C   UNL d   1      35.098  73.944  91.355  0.00  0.00     0.117 C 
ATOM     11  H   UNL d   1      38.016  74.823  90.004  0.00  0.00     0.163 HD
ENDBRANCH   6   7
BRANCH   6  12
ATOM     12  C   UNL d   1      36.741  77.357  90.397  0.00  0.00     0.038 C 
BRANCH  12  13
ATOM     13  C   UNL d   1      38.224  77.394  90.821  0.00  0.00    -0.020 C 
ATOM     14  C   UNL d   1      39.045  78.411  90.026  0.00  0.00     0.009 C 
ATOM     15  C   UNL d   1      38.314  77.710  92.316  0.00  0.00     0.009 C 
ENDBRANCH  12  13
ENDBRANCH   6  12
ENDBRANCH   3   6
ENDBRANCH   1   2
BRANCH   1  16
ATOM     16  C   UNL d   1      34.627  73.557  86.234  0.00  0.00     0.072 C 
BRANCH  16  17
ATOM     17  C   UNL d   1      35.399  72.612  87.132  0.00  0.00    -0.056 A 
ATOM     18  C   UNL d   1      36.786  72.482  86.962  0.00  0.00     0.007 A 
ATOM     19  C   UNL d   1      37.529  71.634  87.786  0.00  0.00     0.001 A 
ATOM     20  C   UNL d   1      36.897  70.909  88.793  0.00  0.00     0.000 A 
ATOM     21  C   UNL d   1      35.524  71.037  88.980  0.00  0.00     0.001 A 
ATOM     22  C   UNL d   1      34.780  71.890  88.163  0.00  0.00     0.007 A 
ENDBRANCH  16  17
ENDBRANCH   1  16
BRANCH   1  23
ATOM     23  C   UNL d   1      33.716  75.840  85.882  0.00  0.00     0.255 C 
ATOM     24  O   UNL d   1      32.676  76.027  86.521  0.00  0.00    -0.286 OA
BRANCH  23  25
ATOM     25  C   UNL d   1      33.886  76.281  84.438  0.00  0.00     0.453 C 
ATOM     26  F   UNL d   1      32.730  76.212  83.722  0.00  0.00    -0.163 F 
ATOM     27  F   UNL d   1      34.295  77.579  84.349  0.00  0.00    -0.163 F 
ATOM     28  F   UNL d   1      34.801  75.541  83.759  0.00  0.00    -0.163 F 
ENDBRANCH  23  25
ENDBRANCH   1  23
TORSDOF 9
ENDMDL
MODEL 6
REMARK VINA RESULT:      -5.9      2.476      4.165
REMARK  9 active torsions:
REMARK  status: ('A' for Active; 'I' for Inactive)
REMARK    1  A    between atoms: C_1  and  C_5 
REMARK    2  A    between atoms: C_7  and  C_5 
REMARK    3  A    between atoms: C_7  and  N_15 
REMARK    4  A    between atoms: C_7  and  C_8 
REMARK    5  A    between atoms: C_8  and  C_9 
REMARK       I    between atoms: N_15  and  C_16 
REMARK    6  A    between atoms: C_16  and  C_18 
REMARK    7  A    between atoms: C_18  and  N_19 
REMARK    8  A    between atoms: C_18  and  C_23 
REMARK       I    between atoms: N_19  and  C_20 
REMARK    9  A    between atoms: C_23  and  C_24 
ROOT
ATOM      1  C   UNL d   1      36.299  75.904  88.759  0.00  0.00     0.168 C 
ENDROOT
BRANCH   1   2
ATOM      2  N   UNL d   1      35.593  75.825  87.478  0.00  0.00    -0.347 N 
ATOM      3  C   UNL d   1      34.406  75.135  87.359  0.00  0.00     0.241 C 
ATOM      4  O   UNL d   1      33.885  74.558  88.309  0.00  0.00    -0.271 OA
ATOM      5  H   UNL d   1      36.156  75.854  86.627  0.00  0.00     0.163 HD
BRANCH   3   6
ATOM      6  C   UNL d   1      33.887  75.068  85.911  0.00  0.00     0.177 C 
BRANCH   6   7
ATOM      7  N   UNL d   1      34.558  76.118  85.143  0.00  0.00    -0.348 N 
ATOM      8  C   UNL d   1      33.845  77.161  84.602  0.00  0.00     0.214 C 
ATOM      9  O   UNL d   1      34.369  78.052  83.941  0.00  0.00    -0.274 OA
ATOM     10  C   UNL d   1      32.365  77.110  84.874  0.00  0.00     0.117 C 
ATOM     11  H   UNL d   1      35.555  76.232  85.280  0.00  0.00     0.163 HD
ENDBRANCH   6   7
BRANCH   6  12
ATOM     12  C   UNL d   1      34.148  73.707  85.266  0.00  0.00     0.038 C 
BRANCH  12  13
ATOM     13  C   UNL d   1      32.942  73.095  84.525  0.00  0.00    -0.020 C 
ATOM     14  C   UNL d   1      31.604  73.429  85.188  0.00  0.00     0.009 C 
ATOM     15  C   UNL d   1      32.939  73.584  83.074  0.00  0.00     0.009 C 
ENDBRANCH  12  13
ENDBRANCH   6  12
ENDBRANCH   3   6
ENDBRANCH   1   2
BRANCH   1  16
ATOM     16  C   UNL d   1      37.167  74.655  88.982  0.00  0.00     0.072 C 
BRANCH  16  17
ATOM     17  C   UNL d   1      36.780  73.802  90.173  0.00  0.00    -0.056 A 
ATOM     18  C   UNL d   1      35.955  74.345  91.169  0.00  0.00     0.007 A 
ATOM     19  C   UNL d   1      35.565  73.578  92.269  0.00  0.00     0.001 A 
ATOM     20  C   UNL d   1      35.992  72.257  92.386  0.00  0.00     0.000 A 
ATOM     21  C   UNL d   1      36.801  71.703  91.400  0.00  0.00     0.001 A 
ATOM     22  C   UNL d   1      37.185  72.464  90.295  0.00  0.00     0.007 A 
ENDBRANCH  16  17
ENDBRANCH   1  16
BRANCH   1  23
ATOM     23  C   UNL d   1      37.221  77.130  88.798  0.00  0.00     0.255 C 
ATOM     24  O   UNL d   1      37.714  77.612  87.772  0.00  0.00    -0.286 OA
BRANCH  23  25
ATOM     25  C   UNL d   1      37.558  77.640  90.189  0.00  0.00     0.453 C 
ATOM     26  F   UNL d   1      38.312  76.763  90.909  0.00  0.00    -0.163 F 
ATOM     27  F   UNL d   1      38.282  78.795  90.145  0.00  0.00    -0.163 F 
ATOM     28  F   UNL d   1      36.457  77.904  90.941  0.00  0.00    -0.163 F 
ENDBRANCH  23  25
ENDBRANCH   1  23
TORSDOF 9
ENDMDL
MODEL 7
REMARK VINA RESULT:      -5.7      3.379      7.743
REMARK  9 active torsions:
REMARK  status: ('A' for Active; 'I' for Inactive)
REMARK    1  A    between atoms: C_1  and  C_5 
REMARK    2  A    between atoms: C_7  and  C_5 
REMARK    3  A    between atoms: C_7  and  N_15 
REMARK    4  A    between atoms: C_7  and  C_8 
REMARK    5  A    between atoms: C_8  and  C_9 
REMARK       I    between atoms: N_15  and  C_16 
REMARK    6  A    between atoms: C_16  and  C_18 
REMARK    7  A    between atoms: C_18  and  N_19 
REMARK    8  A    between atoms: C_18  and  C_23 
REMARK       I    between atoms: N_19  and  C_20 
REMARK    9  A    between atoms: C_23  and  C_24 
ROOT
ATOM      1  C   UNL d   1      34.489  75.846  86.634  0.00  0.00     0.168 C 
ENDROOT
BRANCH   1   2
ATOM      2  N   UNL d   1      34.926  75.886  88.031  0.00  0.00    -0.347 N 
ATOM      3  C   UNL d   1      35.908  76.761  88.446  0.00  0.00     0.241 C 
ATOM      4  O   UNL d   1      36.459  77.541  87.676  0.00  0.00    -0.271 OA
ATOM      5  H   UNL d   1      34.875  75.019  88.567  0.00  0.00     0.163 HD
BRANCH   3   6
ATOM      6  C   UNL d   1      36.308  76.565  89.920  0.00  0.00     0.177 C 
BRANCH   6   7
ATOM      7  N   UNL d   1      37.096  75.335  90.014  0.00  0.00    -0.348 N 
ATOM      8  C   UNL d   1      36.767  74.355  90.919  0.00  0.00     0.214 C 
ATOM      9  O   UNL d   1      37.411  73.317  91.037  0.00  0.00    -0.274 OA
ATOM     10  C   UNL d   1      35.562  74.668  91.765  0.00  0.00     0.117 C 
ATOM     11  H   UNL d   1      37.670  75.087  89.217  0.00  0.00     0.163 HD
ENDBRANCH   6   7
BRANCH   6  12
ATOM     12  C   UNL d   1      37.120  77.743  90.459  0.00  0.00     0.038 C 
BRANCH  12  13
ATOM     13  C   UNL d   1      38.639  77.493  90.565  0.00  0.00    -0.020 C 
ATOM     14  C   UNL d   1      39.422  78.080  89.388  0.00  0.00     0.009 C 
ATOM     15  C   UNL d   1      39.157  78.083  91.879  0.00  0.00     0.009 C 
ENDBRANCH  12  13
ENDBRANCH   6  12
ENDBRANCH   3   6
ENDBRANCH   1   2
BRANCH   1  16
ATOM     16  C   UNL d   1      34.959  74.551  85.952  0.00  0.00     0.072 C 
BRANCH  16  17
ATOM     17  C   UNL d   1      34.276  74.225  84.640  0.00  0.00    -0.056 A 
ATOM     18  C   UNL d   1      34.589  74.976  83.497  0.00  0.00     0.007 A 
ATOM     19  C   UNL d   1      33.992  74.687  82.268  0.00  0.00     0.001 A 
ATOM     20  C   UNL d   1      33.076  73.642  82.165  0.00  0.00     0.000 A 
ATOM     21  C   UNL d   1      32.766  72.882  83.288  0.00  0.00     0.001 A 
ATOM     22  C   UNL d   1      33.368  73.163  84.515  0.00  0.00     0.007 A 
ENDBRANCH  16  17
ENDBRANCH   1  16
BRANCH   1  23
ATOM     23  C   UNL d   1      32.957  75.897  86.541  0.00  0.00     0.255 C 
ATOM     24  O   UNL d   1      32.236  75.153  87.213  0.00  0.00    -0.286 OA
BRANCH  23  25
ATOM     25  C   UNL d   1      32.407  76.853  85.496  0.00  0.00     0.453 C 
ATOM     26  F   UNL d   1      33.383  77.506  84.806  0.00  0.00    -0.163 F 
ATOM     27  F   UNL d   1      31.665  76.203  84.555  0.00  0.00    -0.163 F 
ATOM     28  F   UNL d   1      31.604  77.814  86.024  0.00  0.00    -0.163 F 
ENDBRANCH  23  25
ENDBRANCH   1  23
TORSDOF 9
ENDMDL
MODEL 8
REMARK VINA RESULT:      -5.6      2.769      4.913
REMARK  9 active torsions:
REMARK  status: ('A' for Active; 'I' for Inactive)
REMARK    1  A    between atoms: C_1  and  C_5 
REMARK    2  A    between atoms: C_7  and  C_5 
REMARK    3  A    between atoms: C_7  and  N_15 
REMARK    4  A    between atoms: C_7  and  C_8 
REMARK    5  A    between atoms: C_8  and  C_9 
REMARK       I    between atoms: N_15  and  C_16 
REMARK    6  A    between atoms: C_16  and  C_18 
REMARK    7  A    between atoms: C_18  and  N_19 
REMARK    8  A    between atoms: C_18  and  C_23 
REMARK       I    between atoms: N_19  and  C_20 
REMARK    9  A    between atoms: C_23  and  C_24 
ROOT
ATOM      1  C   UNL d   1      35.143  76.101  87.722  0.00  0.00     0.168 C 
ENDROOT
BRANCH   1   2
ATOM      2  N   UNL d   1      35.592  74.708  87.778  0.00  0.00    -0.347 N 
ATOM      3  C   UNL d   1      35.103  73.839  88.730  0.00  0.00     0.241 C 
ATOM      4  O   UNL d   1      34.277  74.184  89.569  0.00  0.00    -0.271 OA
ATOM      5  H   UNL d   1      36.542  74.504  87.465  0.00  0.00     0.163 HD
BRANCH   3   6
ATOM      6  C   UNL d   1      35.786  72.459  88.698  0.00  0.00     0.177 C 
BRANCH   6   7
ATOM      7  N   UNL d   1      37.128  72.633  88.142  0.00  0.00    -0.348 N 
ATOM      8  C   UNL d   1      37.549  71.884  87.070  0.00  0.00     0.214 C 
ATOM      9  O   UNL d   1      38.671  71.991  86.584  0.00  0.00    -0.274 OA
ATOM     10  C   UNL d   1      36.526  70.909  86.551  0.00  0.00     0.117 C 
ATOM     11  H   UNL d   1      37.609  73.501  88.345  0.00  0.00     0.163 HD
ENDBRANCH   6   7
BRANCH   6  12
ATOM     12  C   UNL d   1      35.879  71.828  90.087  0.00  0.00     0.038 C 
BRANCH  12  13
ATOM     13  C   UNL d   1      36.982  72.411  90.996  0.00  0.00    -0.020 C 
ATOM     14  C   UNL d   1      36.422  73.204  92.178  0.00  0.00     0.009 C 
ATOM     15  C   UNL d   1      37.868  71.272  91.507  0.00  0.00     0.009 C 
ENDBRANCH  12  13
ENDBRANCH   6  12
ENDBRANCH   3   6
ENDBRANCH   1   2
BRANCH   1  16
ATOM     16  C   UNL d   1      36.344  77.060  87.697  0.00  0.00     0.072 C 
BRANCH  16  17
ATOM     17  C   UNL d   1      37.018  77.289  89.034  0.00  0.00    -0.056 A 
ATOM     18  C   UNL d   1      36.370  76.882  90.210  0.00  0.00     0.007 A 
ATOM     19  C   UNL d   1      36.974  77.061  91.455  0.00  0.00     0.001 A 
ATOM     20  C   UNL d   1      38.234  77.647  91.543  0.00  0.00     0.000 A 
ATOM     21  C   UNL d   1      38.893  78.045  90.384  0.00  0.00     0.001 A 
ATOM     22  C   UNL d   1      38.295  77.860  89.137  0.00  0.00     0.007 A 
ENDBRANCH  16  17
ENDBRANCH   1  16
BRANCH   1  23
ATOM     23  C   UNL d   1      34.312  76.354  86.456  0.00  0.00     0.255 C 
ATOM     24  O   UNL d   1      34.611  77.234  85.642  0.00  0.00    -0.286 OA
BRANCH  23  25
ATOM     25  C   UNL d   1      33.050  75.516  86.336  0.00  0.00     0.453 C 
ATOM     26  F   UNL d   1      32.382  75.388  87.515  0.00  0.00    -0.163 F 
ATOM     27  F   UNL d   1      32.155  76.069  85.467  0.00  0.00    -0.163 F 
ATOM     28  F   UNL d   1      33.288  74.254  85.892  0.00  0.00    -0.163 F 
ENDBRANCH  23  25
ENDBRANCH   1  23
TORSDOF 9
ENDMDL
MODEL 9
REMARK VINA RESULT:      -5.4      3.577      7.600
REMARK  9 active torsions:
REMARK  status: ('A' for Active; 'I' for Inactive)
REMARK    1  A    between atoms: C_1  and  C_5 
REMARK    2  A    between atoms: C_7  and  C_5 
REMARK    3  A    between atoms: C_7  and  N_15 
REMARK    4  A    between atoms: C_7  and  C_8 
REMARK    5  A    between atoms: C_8  and  C_9 
REMARK       I    between atoms: N_15  and  C_16 
REMARK    6  A    between atoms: C_16  and  C_18 
REMARK    7  A    between atoms: C_18  and  N_19 
REMARK    8  A    between atoms: C_18  and  C_23 
REMARK       I    between atoms: N_19  and  C_20 
REMARK    9  A    between atoms: C_23  and  C_24 
ROOT
ATOM      1  C   UNL d   1      34.366  74.874  85.870  0.00  0.00     0.168 C 
ENDROOT
BRANCH   1   2
ATOM      2  N   UNL d   1      35.255  74.725  87.025  0.00  0.00    -0.347 N 
ATOM      3  C   UNL d   1      35.805  75.824  87.648  0.00  0.00     0.241 C 
ATOM      4  O   UNL d   1      35.581  76.971  87.272  0.00  0.00    -0.271 OA
ATOM      5  H   UNL d   1      35.822  73.877  87.078  0.00  0.00     0.163 HD
BRANCH   3   6
ATOM      6  C   UNL d   1      36.802  75.453  88.760  0.00  0.00     0.177 C 
BRANCH   6   7
ATOM      7  N   UNL d   1      36.450  76.218  89.957  0.00  0.00    -0.348 N 
ATOM      8  C   UNL d   1      37.228  77.269  90.377  0.00  0.00     0.214 C 
ATOM      9  O   UNL d   1      36.973  77.926  91.381  0.00  0.00    -0.274 OA
ATOM     10  C   UNL d   1      38.430  77.539  89.510  0.00  0.00     0.117 C 
ATOM     11  H   UNL d   1      35.490  76.167  90.277  0.00  0.00     0.163 HD
ENDBRANCH   6   7
BRANCH   6  12
ATOM     12  C   UNL d   1      36.784  73.958  89.077  0.00  0.00     0.038 C 
BRANCH  12  13
ATOM     13  C   UNL d   1      36.179  73.589  90.448  0.00  0.00    -0.020 C 
ATOM     14  C   UNL d   1      34.790  72.957  90.335  0.00  0.00     0.009 C 
ATOM     15  C   UNL d   1      37.126  72.635  91.178  0.00  0.00     0.009 C 
ENDBRANCH  12  13
ENDBRANCH   6  12
ENDBRANCH   3   6
ENDBRANCH   1   2
BRANCH   1  16
ATOM     16  C   UNL d   1      34.160  73.525  85.163  0.00  0.00     0.072 C 
BRANCH  16  17
ATOM     17  C   UNL d   1      33.432  73.594  83.836  0.00  0.00    -0.056 A 
ATOM     18  C   UNL d   1      33.973  74.363  82.794  0.00  0.00     0.007 A 
ATOM     19  C   UNL d   1      33.337  74.432  81.554  0.00  0.00     0.001 A 
ATOM     20  C   UNL d   1      32.155  73.729  81.335  0.00  0.00     0.000 A 
ATOM     21  C   UNL d   1      31.614  72.952  82.355  0.00  0.00     0.001 A 
ATOM     22  C   UNL d   1      32.252  72.876  83.594  0.00  0.00     0.007 A 
ENDBRANCH  16  17
ENDBRANCH   1  16
BRANCH   1  23
ATOM     23  C   UNL d   1      32.988  75.392  86.306  0.00  0.00     0.255 C 
ATOM     24  O   UNL d   1      32.336  74.844  87.201  0.00  0.00    -0.286 OA
BRANCH  23  25
ATOM     25  C   UNL d   1      32.451  76.557  85.493  0.00  0.00     0.453 C 
ATOM     26  F   UNL d   1      33.430  77.262  84.862  0.00  0.00    -0.163 F 
ATOM     27  F   UNL d   1      31.607  76.140  84.506  0.00  0.00    -0.163 F 
ATOM     28  F   UNL d   1      31.756  77.454  86.241  0.00  0.00    -0.163 F 
ENDBRANCH  23  25
ENDBRANCH   1  23
TORSDOF 9
ENDMDL
