REMARK  9 active torsions:
REMARK  status: ('A' for Active; 'I' for Inactive)
REMARK    1  A    between atoms: C_1  and  C_5 
REMARK    2  A    between atoms: C_7  and  C_5 
REMARK    3  A    between atoms: C_7  and  N_15 
REMARK    4  A    between atoms: C_7  and  C_8 
REMARK    5  A    between atoms: C_8  and  C_9 
REMARK       I    between atoms: N_15  and  C_16 
REMARK    6  A    between atoms: C_16  and  C_18 
REMARK    7  A    between atoms: C_18  and  N_19 
REMARK    8  A    between atoms: C_18  and  C_23 
REMARK       I    between atoms: N_19  and  C_20 
REMARK    9  A    between atoms: C_23  and  C_24 
ROOT
ATOM      1  C   UNL d   1       3.248   1.130   0.659  0.00  0.00     0.168 C 
ENDROOT
BRANCH   1   2
ATOM      2  N   UNL d   1       4.701   0.947   0.658  0.00  0.00    -0.347 N 
ATOM      3  C   UNL d   1       5.550   1.977   1.002  0.00  0.00     0.241 C 
ATOM      4  O   UNL d   1       5.137   3.087   1.323  0.00  0.00    -0.271 OA
ATOM      5  H   UNL d   1       5.092   0.277  -0.006  0.00  0.00     0.163 HD
BRANCH   3   6
ATOM      6  C   UNL d   1       7.037   1.621   0.822  0.00  0.00     0.177 C 
BRANCH   6   7
ATOM      7  N   UNL d   1       7.805   2.372   1.816  0.00  0.00    -0.348 N 
ATOM      8  C   UNL d   1       9.173   2.262   1.880  0.00  0.00     0.214 C 
ATOM      9  O   UNL d   1       9.850   2.865   2.707  0.00  0.00    -0.274 OA
ATOM     10  C   UNL d   1       9.771   1.328   0.862  0.00  0.00     0.117 C 
ATOM     11  H   UNL d   1       7.364   3.185   2.229  0.00  0.00     0.163 HD
ENDBRANCH   6   7
BRANCH   6  12
ATOM     12  C   UNL d   1       7.297   0.124   0.990  0.00  0.00     0.038 C 
BRANCH  12  13
ATOM     13  C   UNL d   1       6.894  -0.458   2.361  0.00  0.00    -0.020 C 
ATOM     14  C   UNL d   1       7.191  -1.954   2.483  0.00  0.00     0.009 C 
ATOM     15  C   UNL d   1       7.622   0.308   3.468  0.00  0.00     0.009 C 
ENDBRANCH  12  13
ENDBRANCH   6  12
ENDBRANCH   3   6
ENDBRANCH   1   2
BRANCH   1  16
ATOM     16  C   UNL d   1       2.757   1.607  -0.717  0.00  0.00     0.072 C 
BRANCH  16  17
ATOM     17  C   UNL d   1       3.349   2.916  -1.198  0.00  0.00    -0.056 A 
ATOM     18  C   UNL d   1       4.736   3.017  -1.382  0.00  0.00     0.007 A 
ATOM     19  C   UNL d   1       5.310   4.203  -1.843  0.00  0.00     0.001 A 
ATOM     20  C   UNL d   1       4.505   5.303  -2.130  0.00  0.00     0.000 A 
ATOM     21  C   UNL d   1       3.127   5.213  -1.963  0.00  0.00     0.001 A 
ATOM     22  C   UNL d   1       2.550   4.026  -1.510  0.00  0.00     0.007 A 
ENDBRANCH  16  17
ENDBRANCH   1  16
BRANCH   1  23
ATOM     23  C   UNL d   1       2.533  -0.190   0.982  0.00  0.00     0.255 C 
ATOM     24  O   UNL d   1       2.332  -0.558   2.144  0.00  0.00    -0.286 OA
BRANCH  23  25
ATOM     25  C   UNL d   1       2.185  -1.046  -0.224  0.00  0.00     0.453 C 
ATOM     26  F   UNL d   1       2.574  -0.487  -1.403  0.00  0.00    -0.163 F 
ATOM     27  F   UNL d   1       2.799  -2.263  -0.176  0.00  0.00    -0.163 F 
ATOM     28  F   UNL d   1       0.853  -1.291  -0.338  0.00  0.00    -0.163 F 
ENDBRANCH  23  25
ENDBRANCH   1  23
TORSDOF 9
