@<TRIPOS>MOLECULE
LPF
 49 49 0 0 0
SMALL
GASTEIGER

@<TRIPOS>ATOM
      1 C           1.4242    2.0063    2.2717 C.3     1  UNL1        0.4525
      2 F           0.9391    2.4754    1.0877 F       1  UNL1       -0.1633
      3 F           0.4379    1.2159    2.7833 F       1  UNL1       -0.1633
      4 F           1.5229    3.0817    3.0970 F       1  UNL1       -0.1633
      5 C           2.7326    1.2501    2.1179 C.2     1  UNL1        0.2557
      6 O           3.3046    0.7028    3.0673 O.2     1  UNL1       -0.2859
      7 C           3.2478    1.1249    0.6762 C.3     1  UNL1        0.0944
      8 C           2.5418   -0.0766    0.0278 C.3     1  UNL1       -0.0020
      9 C           2.8345   -0.2811   -1.4448 C.ar    1  UNL1       -0.0452
     10 C           2.9473   -1.5850   -1.9491 C.ar    1  UNL1       -0.0585
     11 C           3.1968   -1.8065   -3.3052 C.ar    1  UNL1       -0.0615
     12 C           3.3318   -0.7280   -4.1753 C.ar    1  UNL1       -0.0617
     13 C           3.2105    0.5711   -3.6912 C.ar    1  UNL1       -0.0615
     14 C           2.9535    0.7949   -2.3375 C.ar    1  UNL1       -0.0585
     15 N           4.7012    0.9467    0.6576 N.am    1  UNL1       -0.3035
     16 C           5.5500    1.9774    1.0017 C.2     1  UNL1        0.2339
     17 O           5.1369    3.0875    1.3227 O.2     1  UNL1       -0.2738
     18 C           7.0373    1.6213    0.8216 C.3     1  UNL1        0.0996
     19 N           7.4589    2.0965   -0.4967 N.am    1  UNL1       -0.3042
     20 C           7.2507    1.3338   -1.6206 C.2     1  UNL1        0.2105
     21 O           6.7234    0.2263   -1.5836 O.2     1  UNL1       -0.2761
     22 C           7.7101    1.9756   -2.9028 C.3     1  UNL1        0.0122
     23 C           7.9167    2.2491    1.9040 C.3     1  UNL1       -0.0236
     24 C           7.5853    1.8141    3.3464 C.3     1  UNL1       -0.0446
     25 C           7.6747    0.3000    3.5466 C.3     1  UNL1       -0.0626
     26 C           8.5311    2.5234    4.3184 C.3     1  UNL1       -0.0626
     27 H           3.0327    2.0684    0.1629 H       1  UNL1        0.0584
     28 H           2.8422   -0.9832    0.5740 H       1  UNL1        0.0335
     29 H           1.4546    0.0036    0.1440 H       1  UNL1        0.0335
     30 H           2.8479   -2.4451   -1.2892 H       1  UNL1        0.0620
     31 H           3.2893   -2.8219   -3.6820 H       1  UNL1        0.0618
     32 H           3.5300   -0.9000   -5.2289 H       1  UNL1        0.0618
     33 H           3.3139    1.4148   -4.3690 H       1  UNL1        0.0618
     34 H           2.8531    1.8228   -2.0031 H       1  UNL1        0.0620
     35 H           5.0875    0.2841   -0.0162 H       1  UNL1        0.1495
     36 H           7.1514    0.5326    0.8420 H       1  UNL1        0.0594
     37 H           7.6109    3.0916   -0.6076 H       1  UNL1        0.1494
     38 H           8.3403    2.8496   -2.7109 H       1  UNL1        0.0322
     39 H           6.8387    2.2860   -3.4833 H       1  UNL1        0.0322
     40 H           8.2987    1.2519   -3.4752 H       1  UNL1        0.0322
     41 H           7.8515    3.3443    1.8414 H       1  UNL1        0.0290
     42 H           8.9659    1.9990    1.6878 H       1  UNL1        0.0290
     43 H           6.5638    2.1283    3.5909 H       1  UNL1        0.0296
     44 H           8.6373   -0.0920    3.2031 H       1  UNL1        0.0232
     45 H           6.8794   -0.2191    3.0030 H       1  UNL1        0.0232
     46 H           7.5624    0.0399    4.6053 H       1  UNL1        0.0232
     47 H           9.5753    2.2557    4.1232 H       1  UNL1        0.0232
     48 H           8.2995    2.2569    5.3547 H       1  UNL1        0.0232
     49 H           8.4367    3.6111    4.2252 H       1  UNL1        0.0232
@<TRIPOS>BOND
     1     1     2    1
     2     1     3    1
     3     1     4    1
     4     1     5    1
     5     5     6    2
     6     7    15    1
     7     8     9    1
     8     9    10   ar
     9     9    14   ar
    10    10    11   ar
    11    11    12   ar
    12    12    13   ar
    13    13    14   ar
    14    15    16   am
    15    16    17    2
    16    16    18    1
    17    18    19    1
    18    18    23    1
    19    19    20   am
    20    20    21    2
    21    20    22    1
    22    23    24    1
    23    24    25    1
    24    24    26    1
    25     7     8    1
    26     7     5    1
    27     7    27    1
    28     8    28    1
    29     8    29    1
    30    10    30    1
    31    11    31    1
    32    12    32    1
    33    13    33    1
    34    14    34    1
    35    15    35    1
    36    18    36    1
    37    19    37    1
    38    22    38    1
    39    22    39    1
    40    22    40    1
    41    23    41    1
    42    23    42    1
    43    24    43    1
    44    25    44    1
    45    25    45    1
    46    25    46    1
    47    26    47    1
    48    26    48    1
    49    26    49    1
