@<TRIPOS>MOLECULE
LPF
 49 49 0 0 0
SMALL
GASTEIGER

@<TRIPOS>ATOM
      1 C           2.1849   -1.0465   -0.2236 C.3     1  UNL11       0.4525
      2 F           2.5742   -0.4866   -1.4035 F       1  UNL11      -0.1633
      3 F           2.7986   -2.2632   -0.1763 F       1  UNL11      -0.1633
      4 F           0.8528   -1.2913   -0.3382 F       1  UNL11      -0.1633
      5 C           2.5327   -0.1901    0.9818 C.2     1  UNL11       0.2557
      6 O           2.3315   -0.5583    2.1445 O.2     1  UNL11      -0.2859
      7 C           3.2483    1.1302    0.6589 C.3     1  UNL11       0.0944
      8 C           2.7567    1.6067   -0.7172 C.3     1  UNL11      -0.0020
      9 C           3.3493    2.9159   -1.1979 C.3     1  UNL11      -0.0452
     10 C           4.7360    3.0167   -1.3821 C.3     1  UNL11      -0.0585
     11 C           5.3102    4.2034   -1.8430 C.3     1  UNL11      -0.0615
     12 C           4.5055    5.3026   -2.1302 C.3     1  UNL11      -0.0617
     13 C           3.1267    5.2133   -1.9634 C.3     1  UNL11      -0.0615
     14 C           2.5497    4.0258   -1.5102 C.3     1  UNL11      -0.0585
     15 N           4.7012    0.9467    0.6576 N.am    1  UNL11      -0.3035
     16 C           5.5500    1.9774    1.0017 C.2     1  UNL11       0.2339
     17 O           5.1369    3.0875    1.3227 O.2     1  UNL11      -0.2738
     18 C           7.0373    1.6213    0.8216 C.3     1  UNL11       0.0996
     19 N           7.8049    2.3723    1.8157 N.am    1  UNL11      -0.3042
     20 C           9.1731    2.2619    1.8802 C.2     1  UNL11       0.2105
     21 O           9.8501    2.8652    2.7070 O.2     1  UNL11      -0.2761
     22 C           9.7714    1.3284    0.8615 C.3     1  UNL11       0.0122
     23 C           7.2971    0.1236    0.9901 C.3     1  UNL11      -0.0236
     24 C           6.8944   -0.4576    2.3611 C.3     1  UNL11      -0.0446
     25 C           7.1906   -1.9535    2.4834 C.3     1  UNL11      -0.0626
     26 C           7.6220    0.3084    3.4684 C.3     1  UNL11      -0.0626
     27 H           3.0144    1.8400    1.4598 H       1  UNL11       0.0584
     28 H           2.9935    0.8238   -1.4530 H       1  UNL11       0.0335
     29 H           1.6654    1.7119   -0.7239 H       1  UNL11       0.0335
     30 H           5.3872    2.1723   -1.1628 H       1  UNL11       0.0620
     31 H           6.3871    4.2707   -1.9746 H       1  UNL11       0.0618
     32 H           4.9522    6.2267   -2.4845 H       1  UNL11       0.0618
     33 H           2.4961    6.0698   -2.1886 H       1  UNL11       0.0618
     34 H           1.4695    3.9937   -1.4062 H       1  UNL11       0.0620
     35 H           5.0923    0.2768   -0.0061 H       1  UNL11       0.1495
     36 H           7.3658    1.9411   -0.1727 H       1  UNL11       0.0594
     37 H           7.3643    3.1849    2.2293 H       1  UNL11       0.1494
     38 H           9.0454    1.0602    0.0876 H       1  UNL11       0.0322
     39 H          10.1108    0.4186    1.3613 H       1  UNL11       0.0322
     40 H          10.6182    1.8230    0.3757 H       1  UNL11       0.0322
     41 H           8.3616   -0.0869    0.8159 H       1  UNL11       0.0290
     42 H           6.7526   -0.4147    0.2002 H       1  UNL11       0.0290
     43 H           5.8181   -0.3121    2.5110 H       1  UNL11       0.0296
     44 H           8.2304   -2.1771    2.2244 H       1  UNL11       0.0232
     45 H           6.5401   -2.5410    1.8283 H       1  UNL11       0.0232
     46 H           7.0149   -2.3028    3.5072 H       1  UNL11       0.0232
     47 H           8.7087    0.2085    3.3725 H       1  UNL11       0.0232
     48 H           7.3321   -0.0628    4.4568 H       1  UNL11       0.0232
     49 H           7.3745    1.3750    3.4275 H       1  UNL11       0.0232
@<TRIPOS>BOND
     1     1     2    1
     2     1     3    1
     3     1     4    1
     4     1     5    1
     5     5     6    2
     6     7    15    1
     7     8     9    1
     8     9    10   ar
     9     9    14   ar
    10    10    11   ar
    11    11    12   ar
    12    12    13   ar
    13    13    14   ar
    14    15    16   am
    15    16    17    2
    16    16    18    1
    17    18    19    1
    18    18    23    1
    19    19    20   am
    20    20    21    2
    21    20    22    1
    22    23    24    1
    23    24    25    1
    24    24    26    1
    25     7     8    1
    26     7     5    1
    27     7    27    1
    28     8    28    1
    29     8    29    1
    30    10    30    1
    31    11    31    1
    32    12    32    1
    33    13    33    1
    34    14    34    1
    35    15    35    1
    36    18    36    1
    37    19    37    1
    38    22    38    1
    39    22    39    1
    40    22    40    1
    41    23    41    1
    42    23    42    1
    43    24    43    1
    44    25    44    1
    45    25    45    1
    46    25    46    1
    47    26    47    1
    48    26    48    1
    49    26    49    1
