APR
  -OEChem-12162215263D

 59 62  0     1  0  0  0  0  0999 V2000
   57.3040   21.6770    3.1260 N   0  0  0  0  0  0  0  0  0  0  0  0
   58.3330   20.7800    2.7800 C   0  0  0  0  0  0  0  0  0  0  0  0
   58.8150   19.7830    3.5230 N   0  0  0  0  0  0  0  0  0  0  0  0
   58.1610   19.6550    4.7740 C   0  0  0  0  0  0  0  0  0  0  0  0
   57.1000   20.4410    5.2670 C   0  0  0  0  0  0  0  0  0  0  0  0
   56.6840   21.5620    4.3960 C   0  0  0  0  0  0  0  0  0  0  0  0
   55.8370   22.5310    4.7670 N   0  0  0  0  0  0  0  0  0  0  0  0
   56.7140   19.9870    6.5210 N   0  0  0  0  0  0  0  0  0  0  0  0
   57.5920   19.0160    6.8140 C   0  0  0  0  0  0  0  0  0  0  0  0
   58.5230   18.8310    5.8250 N   0  0  0  0  0  0  0  0  0  0  0  0
   59.9250   18.0130    5.7990 C   0  0  1  0  0  0  0  0  0  0  0  0
   60.8730   18.5770    6.8830 C   0  0  2  0  0  0  0  0  0  0  0  0
   62.1590   18.7400    6.3230 O   0  0  0  0  0  0  0  0  0  0  0  0
   60.9310   17.4880    8.0190 C   0  0  2  0  0  0  0  0  0  0  0  0
   62.2740   17.2370    8.4160 O   0  0  0  0  0  0  0  0  0  0  0  0
   59.7140   16.6950    6.1610 O   0  0  0  0  0  0  0  0  0  0  0  0
   60.3200   16.2700    7.4700 C   0  0  2  0  0  0  0  0  0  0  0  0
   59.2490   15.8470    8.3930 C   0  0  0  0  0  0  0  0  0  0  0  0
   58.0710   15.5480    7.6360 O   0  0  0  0  0  0  0  0  0  0  0  0
   56.7780   15.0380    8.3300 P   0  0  2  0  0  0  0  0  0  0  0  0
   56.7090   13.6690    8.1780 O   0  0  0  0  0  0  0  0  0  0  0  0
   55.7110   15.6570    7.7050 O   0  0  0  0  0  0  0  0  0  0  0  0
   56.7270   15.4430    9.9830 O   0  0  0  0  0  0  0  0  0  0  0  0
   56.5850   16.8540   10.7520 P   0  0  2  0  0  0  0  0  0  0  0  0
   57.1850   17.9400    9.9290 O   0  0  0  0  0  0  0  0  0  0  0  0
   57.2570   16.7950   12.0710 O   0  0  0  0  0  0  0  0  0  0  0  0
   54.9380   17.1950   10.9040 O   0  0  0  0  0  0  0  0  0  0  0  0
   54.3430   16.6280   12.1670 C   0  0  0  0  0  0  0  0  0  0  0  0
   54.1070   19.1290   12.8190 O   0  0  0  0  0  0  0  0  0  0  0  0
   52.8620   20.4380   11.3860 O   0  0  0  0  0  0  0  0  0  0  0  0
   52.8340   19.7590   12.6100 C   0  0  1  0  0  0  0  0  0  0  0  0
   50.5420   19.0750   13.1370 O   0  0  0  0  0  0  0  0  0  0  0  0
   51.7790   18.6290   12.5530 C   0  0  2  0  0  0  0  0  0  0  0  0
   51.9510   17.5950   14.8160 O   0  0  0  0  0  0  0  0  0  0  0  0
   52.3640   17.4650   13.3670 C   0  0  2  0  0  0  0  0  0  0  0  0
   53.8420   17.6230   13.2610 C   0  0  1  0  0  0  0  0  0  0  0  0
   58.8260   20.8700    1.7970 H   0  0  0  0  0  0  0  0  0  0  0  0
   55.3910   22.4480    5.6800 H   0  0  0  0  0  0  0  0  0  0  0  0
   55.1180   22.6400    4.0510 H   0  0  0  0  0  0  0  0  0  0  0  0
   57.5530   18.4390    7.7530 H   0  0  0  0  0  0  0  0  0  0  0  0
   60.3480   18.1010    4.7710 H   0  0  0  0  0  0  0  0  0  0  0  0
   60.5230   19.5600    7.2760 H   0  0  0  0  0  0  0  0  0  0  0  0
   62.7410   19.0860    6.9880 H   0  0  0  0  0  0  0  0  0  0  0  0
   60.3840   17.8370    8.9260 H   0  0  0  0  0  0  0  0  0  0  0  0
   62.3090   16.5800    9.1010 H   0  0  0  0  0  0  0  0  0  0  0  0
   61.0430   15.4320    7.3390 H   0  0  0  0  0  0  0  0  0  0  0  0
   59.5610   14.9980    9.0440 H   0  0  0  0  0  0  0  0  0  0  0  0
   59.0580   16.5980    9.1940 H   0  0  0  0  0  0  0  0  0  0  0  0
   54.9200   15.3450    8.1290 H   0  0  0  0  0  0  0  0  0  0  0  0
   57.1730   17.6250   12.5230 H   0  0  0  0  0  0  0  0  0  0  0  0
   53.5120   15.9350   11.8980 H   0  0  0  0  0  0  0  0  0  0  0  0
   55.0710   15.9190   12.6260 H   0  0  0  0  0  0  0  0  0  0  0  0
   52.0190   20.8540   11.2470 H   0  0  0  0  0  0  0  0  0  0  0  0
   52.5950   20.4840   13.4220 H   0  0  0  0  0  0  0  0  0  0  0  0
   49.8940   18.3810   13.1020 H   0  0  0  0  0  0  0  0  0  0  0  0
   51.5590   18.3230   11.5030 H   0  0  0  0  0  0  0  0  0  0  0  0
   52.3120   16.8750   15.3190 H   0  0  0  0  0  0  0  0  0  0  0  0
   52.0110   16.4740   12.9940 H   0  0  0  0  0  0  0  0  0  0  0  0
   54.3730   17.4090   14.2170 H   0  0  0  0  0  0  0  0  0  0  0  0
  1  2  1  0  0  0  0
  1  6  2  0  0  0  0
  2  3  2  0  0  0  0
  2 37  1  0  0  0  0
  3  4  1  0  0  0  0
  4  5  2  0  0  0  0
  4 10  1  0  0  0  0
  5  6  1  0  0  0  0
  5  8  1  0  0  0  0
  6  7  1  0  0  0  0
  7 38  1  0  0  0  0
  7 39  1  0  0  0  0
  8  9  2  0  0  0  0
  9 10  1  0  0  0  0
  9 40  1  0  0  0  0
 10 11  1  0  0  0  0
 11 12  1  0  0  0  0
 11 16  1  0  0  0  0
 11 41  1  0  0  0  0
 12 13  1  0  0  0  0
 12 14  1  0  0  0  0
 12 42  1  0  0  0  0
 13 43  1  0  0  0  0
 14 15  1  0  0  0  0
 14 17  1  0  0  0  0
 14 44  1  0  0  0  0
 15 45  1  0  0  0  0
 16 17  1  0  0  0  0
 17 18  1  0  0  0  0
 17 46  1  0  0  0  0
 18 19  1  0  0  0  0
 18 47  1  0  0  0  0
 18 48  1  0  0  0  0
 19 20  1  0  0  0  0
 20 21  2  0  0  0  0
 20 22  1  0  0  0  0
 20 23  1  0  0  0  0
 22 49  1  0  0  0  0
 23 24  1  0  0  0  0
 24 25  2  0  0  0  0
 24 26  1  0  0  0  0
 24 27  1  0  0  0  0
 26 50  1  0  0  0  0
 27 28  1  0  0  0  0
 28 36  1  0  0  0  0
 28 51  1  0  0  0  0
 28 52  1  0  0  0  0
 29 31  1  0  0  0  0
 29 36  1  0  0  0  0
 30 31  1  0  0  0  0
 30 53  1  0  0  0  0
 31 33  1  0  0  0  0
 31 54  1  0  0  0  0
 32 33  1  0  0  0  0
 32 55  1  0  0  0  0
 33 35  1  0  0  0  0
 33 56  1  0  0  0  0
 34 35  1  0  0  0  0
 34 57  1  0  0  0  0
 35 36  1  0  0  0  0
 35 58  1  0  0  0  0
 36 59  1  0  0  0  0
M  END
> <OPENEYE_ISO_SMILES>
c1nc(c2c(n1)n(cn2)[C@H]3[C@@H]([C@@H]([C@H](O3)CO[P@](=O)(O)O[P@](=O)(O)OC[C@@H]4[C@H]([C@H]([C@@H](O4)O)O)O)O)O)N

> <OPENEYE_INCHI>
InChI=1S/C15H23N5O14P2/c16-12-7-13(18-3-17-12)20(4-19-7)14-10(23)8(21)5(32-14)1-30-35(26,27)34-36(28,29)31-2-6-9(22)11(24)15(25)33-6/h3-6,8-11,14-15,21-25H,1-2H2,(H,26,27)(H,28,29)(H2,16,17,18)/t5-,6-,8-,9-,10-,11-,14-,15-/m1/s1

> <OPENEYE_INCHIKEY>
SRNWOUGRCWSEMX-KEOHHSTQSA-N

> <FORMULA>
C15H23N5O14P2

$$$$
