MODEL 1
REMARK VINA RESULT:      -9.1      0.000      0.000
REMARK  12 active torsions:
REMARK  status: ('A' for Active; 'I' for Inactive)
REMARK    1  A    between atoms: O_3  and  C_31 
REMARK    2  A    between atoms: OE1_5  and  CD_32 
REMARK    3  A    between atoms: N_9  and  C_16 
REMARK    4  A    between atoms: N_9  and  C_20 
REMARK    5  A    between atoms: CA_21  and  N_12 
REMARK       I    between atoms: N_12  and  C17_30 
REMARK    6  A    between atoms: N_13  and  C_23 
REMARK    7  A    between atoms: C_14  and  C_16 
REMARK    8  A    between atoms: CA_21  and  CB_22 
REMARK    9  A    between atoms: CA_21  and  C_31 
REMARK   10  A    between atoms: CB_22  and  CG_29 
REMARK   11  A    between atoms: C_26  and  C17_30 
REMARK   12  A    between atoms: CG_29  and  CD_32 
ROOT
ATOM      1  C   UNL d   1      20.780  19.735   8.902  0.00  0.00     0.028 A 
ATOM      2  C   UNL d   1      21.439  20.155  10.066  0.00  0.00     0.030 A 
ATOM      3  C   UNL d   1      19.380  19.691   8.923  0.00  0.00     0.030 A 
ATOM      4  C   UNL d   1      19.337  20.465  11.220  0.00  0.00     0.032 A 
ATOM      5  C   UNL d   1      20.729  20.538  11.211  0.00  0.00     0.019 A 
ATOM      6  C   UNL d   1      18.660  20.059  10.064  0.00  0.00     0.019 A 
ENDROOT
BRANCH   1   7
ATOM      7  N   UNL d   1      21.440  19.234   7.784  0.00  0.00    -0.388 N 
ATOM      8  H   UNL d   1      20.896  18.540   7.267  0.00  0.00     0.159 HD
BRANCH   7   9
ATOM      9  C   UNL d   1      22.191  20.126   6.903  0.00  0.00     0.141 C 
BRANCH   9  10
ATOM     10  C   UNL d   1      21.266  21.104   6.166  0.00  0.00     0.096 C 
ATOM     11  N   UNL d   1      20.681  20.489   4.952  0.00  0.00    -0.278 NA
ATOM     12  C   UNL d   1      19.982  21.367   4.105  0.00  0.00     0.123 A 
ATOM     13  H   UNL d   1      20.153  19.628   5.090  0.00  0.00     0.128 HD
ATOM     14  C   UNL d   1      20.158  22.715   4.094  0.00  0.00     0.153 A 
ATOM     15  C   UNL d   1      18.911  20.818   3.226  0.00  0.00     0.272 A 
ATOM     16  N   UNL d   1      21.075  23.272   4.993  0.00  0.00    -0.371 N 
ATOM     17  N   UNL d   1      19.449  23.560   3.278  0.00  0.00    -0.201 NA
ATOM     18  C   UNL d   1      21.991  22.422   5.763  0.00  0.00     0.142 C 
ATOM     19  H   UNL d   1      21.446  24.145   4.634  0.00  0.00     0.161 HD
ATOM     20  C   UNL d   1      18.521  23.061   2.531  0.00  0.00     0.181 A 
ATOM     21  N   UNL d   1      18.247  21.731   2.467  0.00  0.00    -0.297 N 
ATOM     22  H   UNL d   1      17.482  21.388   1.917  0.00  0.00     0.171 HD
ATOM     23  O   UNL d   1      18.620  19.624   3.227  0.00  0.00    -0.266 OA
BRANCH  20  24
ATOM     24  N   UNL d   1      17.763  23.874   1.755  0.00  0.00    -0.272 NA
ATOM     25  H   UNL d   1      17.415  23.499   0.884  0.00  0.00     0.127 HD
ATOM     26  H   UNL d   1      18.163  24.802   1.667  0.00  0.00     0.127 HD
ENDBRANCH  20  24
ENDBRANCH   9  10
ENDBRANCH   7   9
ENDBRANCH   1   7
BRANCH   4  27
ATOM     27  C17 <1> d   1      18.543  20.727  12.447  0.00  0.00     0.252 C 
ATOM     28  O   UNL d   1      18.067  21.835  12.669  0.00  0.00    -0.268 OA
ATOM     29  N   UNL d   1      18.220  19.637  13.218  0.00  0.00    -0.343 N 
ATOM     30  H   UNL d   1      17.479  19.739  13.900  0.00  0.00     0.163 HD
BRANCH  29  31
ATOM     31  CA  UNL d   1      18.748  18.270  13.043  0.00  0.00     0.183 C 
BRANCH  31  32
ATOM     32  CB  UNL d   1      19.357  17.727  14.343  0.00  0.00     0.046 C 
BRANCH  32  33
ATOM     33  CG  UNL d   1      19.118  18.615  15.573  0.00  0.00     0.112 C 
BRANCH  33  34
ATOM     34  CD  UNL d   1      17.845  18.230  16.290  0.00  0.00     0.139 C 
ATOM     35  OE2 UNL d   1      16.731  18.287  15.799  0.00  0.00    -0.650 OA
BRANCH  34  36
ATOM     36  OE1 UNL d   1      18.048  17.856  17.574  0.00  0.00    -0.776 OA
ATOM     37  HE1 UNL d   1      18.034  16.891  17.720  0.00  0.00     0.167 HD
ENDBRANCH  34  36
ENDBRANCH  33  34
ENDBRANCH  32  33
ENDBRANCH  31  32
BRANCH  31  38
ATOM     38  C   UNL d   1      17.841  17.240  12.324  0.00  0.00     0.163 C 
ATOM     39  OXT UNL d   1      18.307  16.249  11.766  0.00  0.00    -0.648 OA
BRANCH  38  40
ATOM     40  O   UNL d   1      16.512  17.412  12.424  0.00  0.00    -0.775 OA
ATOM     41  H   UNL d   1      16.257  18.286  12.812  0.00  0.00     0.167 HD
ENDBRANCH  38  40
ENDBRANCH  31  38
ENDBRANCH  29  31
ENDBRANCH   4  27
TORSDOF 12
ENDMDL
MODEL 2
REMARK VINA RESULT:      -8.4      1.627      2.806
REMARK  12 active torsions:
REMARK  status: ('A' for Active; 'I' for Inactive)
REMARK    1  A    between atoms: O_3  and  C_31 
REMARK    2  A    between atoms: OE1_5  and  CD_32 
REMARK    3  A    between atoms: N_9  and  C_16 
REMARK    4  A    between atoms: N_9  and  C_20 
REMARK    5  A    between atoms: CA_21  and  N_12 
REMARK       I    between atoms: N_12  and  C17_30 
REMARK    6  A    between atoms: N_13  and  C_23 
REMARK    7  A    between atoms: C_14  and  C_16 
REMARK    8  A    between atoms: CA_21  and  CB_22 
REMARK    9  A    between atoms: CA_21  and  C_31 
REMARK   10  A    between atoms: CB_22  and  CG_29 
REMARK   11  A    between atoms: C_26  and  C17_30 
REMARK   12  A    between atoms: CG_29  and  CD_32 
ROOT
ATOM      1  C   UNL d   1      21.901  19.236   9.047  0.00  0.00     0.028 A 
ATOM      2  C   UNL d   1      21.801  18.164   9.944  0.00  0.00     0.030 A 
ATOM      3  C   UNL d   1      22.117  20.515   9.576  0.00  0.00     0.030 A 
ATOM      4  C   UNL d   1      22.121  19.636  11.836  0.00  0.00     0.032 A 
ATOM      5  C   UNL d   1      21.930  18.353  11.326  0.00  0.00     0.019 A 
ATOM      6  C   UNL d   1      22.234  20.718  10.955  0.00  0.00     0.019 A 
ENDROOT
BRANCH   1   7
ATOM      7  N   UNL d   1      21.664  19.119   7.680  0.00  0.00    -0.388 N 
ATOM      8  H   UNL d   1      20.677  18.992   7.448  0.00  0.00     0.159 HD
BRANCH   7   9
ATOM      9  C   UNL d   1      22.356  19.986   6.729  0.00  0.00     0.141 C 
BRANCH   9  10
ATOM     10  C   UNL d   1      21.395  20.986   6.072  0.00  0.00     0.096 C 
ATOM     11  N   UNL d   1      20.757  20.414   4.864  0.00  0.00    -0.278 NA
ATOM     12  C   UNL d   1      20.016  21.319   4.083  0.00  0.00     0.123 A 
ATOM     13  H   UNL d   1      20.238  19.545   4.994  0.00  0.00     0.128 HD
ATOM     14  C   UNL d   1      20.188  22.667   4.114  0.00  0.00     0.153 A 
ATOM     15  C   UNL d   1      18.908  20.798   3.234  0.00  0.00     0.272 A 
ATOM     16  N   UNL d   1      21.143  23.195   4.990  0.00  0.00    -0.371 N 
ATOM     17  N   UNL d   1      19.440  23.538   3.364  0.00  0.00    -0.201 NA
ATOM     18  C   UNL d   1      22.097  22.322   5.685  0.00  0.00     0.142 C 
ATOM     19  H   UNL d   1      21.495  24.083   4.647  0.00  0.00     0.161 HD
ATOM     20  C   UNL d   1      18.480  23.063   2.641  0.00  0.00     0.181 A 
ATOM     21  N   UNL d   1      18.207  21.735   2.541  0.00  0.00    -0.297 N 
ATOM     22  H   UNL d   1      17.419  21.408   2.015  0.00  0.00     0.171 HD
ATOM     23  O   UNL d   1      18.621  19.603   3.205  0.00  0.00    -0.266 OA
BRANCH  20  24
ATOM     24  N   UNL d   1      17.685  23.900   1.932  0.00  0.00    -0.272 NA
ATOM     25  H   UNL d   1      17.544  24.832   2.294  0.00  0.00     0.127 HD
ATOM     26  H   UNL d   1      16.828  23.449   1.628  0.00  0.00     0.127 HD
ENDBRANCH  20  24
ENDBRANCH   9  10
ENDBRANCH   7   9
ENDBRANCH   1   7
BRANCH   4  27
ATOM     27  C17 <1> d   1      22.126  19.909  13.295  0.00  0.00     0.252 C 
ATOM     28  O   UNL d   1      23.178  20.064  13.907  0.00  0.00    -0.268 OA
ATOM     29  N   UNL d   1      20.909  20.159  13.881  0.00  0.00    -0.343 N 
ATOM     30  H   UNL d   1      20.901  20.597  14.794  0.00  0.00     0.163 HD
BRANCH  29  31
ATOM     31  CA  UNL d   1      19.591  19.991  13.238  0.00  0.00     0.183 C 
BRANCH  31  32
ATOM     32  CB  UNL d   1      18.648  19.138  14.096  0.00  0.00     0.046 C 
BRANCH  32  33
ATOM     33  CG  UNL d   1      18.683  17.636  13.775  0.00  0.00     0.112 C 
BRANCH  33  34
ATOM     34  CD  UNL d   1      17.937  17.331  12.496  0.00  0.00     0.139 C 
ATOM     35  OE2 UNL d   1      18.277  16.491  11.682  0.00  0.00    -0.650 OA
BRANCH  34  36
ATOM     36  OE1 UNL d   1      16.861  18.127  12.304  0.00  0.00    -0.776 OA
ATOM     37  HE1 UNL d   1      16.178  18.057  12.999  0.00  0.00     0.167 HD
ENDBRANCH  34  36
ENDBRANCH  33  34
ENDBRANCH  32  33
ENDBRANCH  31  32
BRANCH  31  38
ATOM     38  C   UNL d   1      18.909  21.258  12.666  0.00  0.00     0.163 C 
ATOM     39  OXT UNL d   1      17.726  21.259  12.329  0.00  0.00    -0.648 OA
BRANCH  38  40
ATOM     40  O   UNL d   1      19.628  22.394  12.651  0.00  0.00    -0.775 OA
ATOM     41  H   UNL d   1      19.633  22.867  13.520  0.00  0.00     0.167 HD
ENDBRANCH  38  40
ENDBRANCH  31  38
ENDBRANCH  29  31
ENDBRANCH   4  27
TORSDOF 12
ENDMDL
MODEL 3
REMARK VINA RESULT:      -8.4      1.221      2.406
REMARK  12 active torsions:
REMARK  status: ('A' for Active; 'I' for Inactive)
REMARK    1  A    between atoms: O_3  and  C_31 
REMARK    2  A    between atoms: OE1_5  and  CD_32 
REMARK    3  A    between atoms: N_9  and  C_16 
REMARK    4  A    between atoms: N_9  and  C_20 
REMARK    5  A    between atoms: CA_21  and  N_12 
REMARK       I    between atoms: N_12  and  C17_30 
REMARK    6  A    between atoms: N_13  and  C_23 
REMARK    7  A    between atoms: C_14  and  C_16 
REMARK    8  A    between atoms: CA_21  and  CB_22 
REMARK    9  A    between atoms: CA_21  and  C_31 
REMARK   10  A    between atoms: CB_22  and  CG_29 
REMARK   11  A    between atoms: C_26  and  C17_30 
REMARK   12  A    between atoms: CG_29  and  CD_32 
ROOT
ATOM      1  C   UNL d   1      21.168  19.701   9.206  0.00  0.00     0.028 A 
ATOM      2  C   UNL d   1      22.101  19.575  10.244  0.00  0.00     0.030 A 
ATOM      3  C   UNL d   1      19.885  20.161   9.531  0.00  0.00     0.030 A 
ATOM      4  C   UNL d   1      20.488  20.347  11.872  0.00  0.00     0.032 A 
ATOM      5  C   UNL d   1      21.776  19.914  11.564  0.00  0.00     0.019 A 
ATOM      6  C   UNL d   1      19.545  20.489  10.847  0.00  0.00     0.019 A 
ENDROOT
BRANCH   1   7
ATOM      7  N   UNL d   1      21.404  19.269   7.904  0.00  0.00    -0.388 N 
ATOM      8  H   UNL d   1      20.594  18.820   7.471  0.00  0.00     0.159 HD
BRANCH   7   9
ATOM      9  C   UNL d   1      22.148  20.107   6.966  0.00  0.00     0.141 C 
BRANCH   9  10
ATOM     10  C   UNL d   1      21.225  21.085   6.227  0.00  0.00     0.096 C 
ATOM     11  N   UNL d   1      20.668  20.481   4.995  0.00  0.00    -0.278 NA
ATOM     12  C   UNL d   1      19.973  21.363   4.147  0.00  0.00     0.123 A 
ATOM     13  H   UNL d   1      20.147  19.612   5.111  0.00  0.00     0.128 HD
ATOM     14  C   UNL d   1      20.136  22.713   4.158  0.00  0.00     0.153 A 
ATOM     15  C   UNL d   1      18.924  20.815   3.243  0.00  0.00     0.272 A 
ATOM     16  N   UNL d   1      21.030  23.268   5.081  0.00  0.00    -0.371 N 
ATOM     17  N   UNL d   1      19.432  23.561   3.342  0.00  0.00    -0.201 NA
ATOM     18  C   UNL d   1      21.943  22.417   5.855  0.00  0.00     0.142 C 
ATOM     19  H   UNL d   1      21.398  24.149   4.740  0.00  0.00     0.161 HD
ATOM     20  C   UNL d   1      18.522  23.063   2.572  0.00  0.00     0.181 A 
ATOM     21  N   UNL d   1      18.263  21.732   2.485  0.00  0.00    -0.297 N 
ATOM     22  H   UNL d   1      17.511  21.387   1.917  0.00  0.00     0.171 HD
ATOM     23  O   UNL d   1      18.646  19.618   3.223  0.00  0.00    -0.266 OA
BRANCH  20  24
ATOM     24  N   UNL d   1      17.768  23.878   1.794  0.00  0.00    -0.272 NA
ATOM     25  H   UNL d   1      17.530  23.553   0.868  0.00  0.00     0.127 HD
ATOM     26  H   UNL d   1      18.095  24.839   1.816  0.00  0.00     0.127 HD
ENDBRANCH  20  24
ENDBRANCH   9  10
ENDBRANCH   7   9
ENDBRANCH   1   7
BRANCH   4  27
ATOM     27  C17 <1> d   1      20.052  20.586  13.271  0.00  0.00     0.252 C 
ATOM     28  O   UNL d   1      20.347  21.621  13.858  0.00  0.00    -0.268 OA
ATOM     29  N   UNL d   1      19.160  19.686  13.802  0.00  0.00    -0.343 N 
ATOM     30  H   UNL d   1      18.652  19.954  14.636  0.00  0.00     0.163 HD
BRANCH  29  31
ATOM     31  CA  UNL d   1      18.751  18.410  13.184  0.00  0.00     0.183 C 
BRANCH  31  32
ATOM     32  CB  UNL d   1      19.778  17.299  13.442  0.00  0.00     0.046 C 
BRANCH  32  33
ATOM     33  CG  UNL d   1      19.579  16.040  12.586  0.00  0.00     0.112 C 
BRANCH  33  34
ATOM     34  CD  UNL d   1      19.836  16.324  11.124  0.00  0.00     0.139 C 
ATOM     35  OE2 UNL d   1      20.941  16.386  10.616  0.00  0.00    -0.650 OA
BRANCH  34  36
ATOM     36  OE1 UNL d   1      18.705  16.561  10.421  0.00  0.00    -0.776 OA
ATOM     37  HE1 UNL d   1      18.047  15.840  10.458  0.00  0.00     0.167 HD
ENDBRANCH  34  36
ENDBRANCH  33  34
ENDBRANCH  32  33
ENDBRANCH  31  32
BRANCH  31  38
ATOM     38  C   UNL d   1      17.289  17.945  13.405  0.00  0.00     0.163 C 
ATOM     39  OXT UNL d   1      16.792  17.892  14.528  0.00  0.00    -0.648 OA
BRANCH  38  40
ATOM     40  O   UNL d   1      16.546  17.704  12.312  0.00  0.00    -0.775 OA
ATOM     41  H   UNL d   1      17.085  17.523  11.503  0.00  0.00     0.167 HD
ENDBRANCH  38  40
ENDBRANCH  31  38
ENDBRANCH  29  31
ENDBRANCH   4  27
TORSDOF 12
ENDMDL
MODEL 4
REMARK VINA RESULT:      -8.4      1.561      2.253
REMARK  12 active torsions:
REMARK  status: ('A' for Active; 'I' for Inactive)
REMARK    1  A    between atoms: O_3  and  C_31 
REMARK    2  A    between atoms: OE1_5  and  CD_32 
REMARK    3  A    between atoms: N_9  and  C_16 
REMARK    4  A    between atoms: N_9  and  C_20 
REMARK    5  A    between atoms: CA_21  and  N_12 
REMARK       I    between atoms: N_12  and  C17_30 
REMARK    6  A    between atoms: N_13  and  C_23 
REMARK    7  A    between atoms: C_14  and  C_16 
REMARK    8  A    between atoms: CA_21  and  CB_22 
REMARK    9  A    between atoms: CA_21  and  C_31 
REMARK   10  A    between atoms: CB_22  and  CG_29 
REMARK   11  A    between atoms: C_26  and  C17_30 
REMARK   12  A    between atoms: CG_29  and  CD_32 
ROOT
ATOM      1  C   UNL d   1      21.732  19.114   8.852  0.00  0.00     0.028 A 
ATOM      2  C   UNL d   1      21.979  20.233   9.659  0.00  0.00     0.030 A 
ATOM      3  C   UNL d   1      21.457  17.897   9.488  0.00  0.00     0.030 A 
ATOM      4  C   UNL d   1      21.683  18.925  11.672  0.00  0.00     0.032 A 
ATOM      5  C   UNL d   1      21.935  20.151  11.057  0.00  0.00     0.019 A 
ATOM      6  C   UNL d   1      21.424  17.798  10.883  0.00  0.00     0.019 A 
ENDROOT
BRANCH   1   7
ATOM      7  N   UNL d   1      21.879  19.118   7.468  0.00  0.00    -0.388 N 
ATOM      8  H   UNL d   1      21.041  18.813   6.969  0.00  0.00     0.159 HD
BRANCH   7   9
ATOM      9  C   UNL d   1      22.559  20.223   6.796  0.00  0.00     0.141 C 
BRANCH   9  10
ATOM     10  C   UNL d   1      21.563  21.177   6.124  0.00  0.00     0.096 C 
ATOM     11  N   UNL d   1      20.923  20.551   4.944  0.00  0.00    -0.278 NA
ATOM     12  C   UNL d   1      20.147  21.412   4.147  0.00  0.00     0.123 A 
ATOM     13  H   UNL d   1      20.429  19.674   5.108  0.00  0.00     0.128 HD
ATOM     14  C   UNL d   1      20.283  22.765   4.136  0.00  0.00     0.153 A 
ATOM     15  C   UNL d   1      19.041  20.836   3.332  0.00  0.00     0.272 A 
ATOM     16  N   UNL d   1      21.236  23.345   4.981  0.00  0.00    -0.371 N 
ATOM     17  N   UNL d   1      19.500  23.592   3.371  0.00  0.00    -0.201 NA
ATOM     18  C   UNL d   1      22.222  22.518   5.687  0.00  0.00     0.142 C 
ATOM     19  H   UNL d   1      21.558  24.230   4.606  0.00  0.00     0.161 HD
ATOM     20  C   UNL d   1      18.543  23.070   2.678  0.00  0.00     0.181 A 
ATOM     21  N   UNL d   1      18.305  21.733   2.622  0.00  0.00    -0.297 N 
ATOM     22  H   UNL d   1      17.518  21.370   2.117  0.00  0.00     0.171 HD
ATOM     23  O   UNL d   1      18.786  19.634   3.342  0.00  0.00    -0.266 OA
BRANCH  20  24
ATOM     24  N   UNL d   1      17.715  23.864   1.956  0.00  0.00    -0.272 NA
ATOM     25  H   UNL d   1      17.072  24.455   2.464  0.00  0.00     0.127 HD
ATOM     26  H   UNL d   1      17.286  23.368   1.182  0.00  0.00     0.127 HD
ENDBRANCH  20  24
ENDBRANCH   9  10
ENDBRANCH   7   9
ENDBRANCH   1   7
BRANCH   4  27
ATOM     27  C17 <1> d   1      21.761  18.753  13.144  0.00  0.00     0.252 C 
ATOM     28  O   UNL d   1      22.841  18.637  13.712  0.00  0.00    -0.268 OA
ATOM     29  N   UNL d   1      20.592  18.913  13.847  0.00  0.00    -0.343 N 
ATOM     30  H   UNL d   1      20.653  19.060  14.847  0.00  0.00     0.163 HD
BRANCH  29  31
ATOM     31  CA  UNL d   1      19.244  19.047  13.261  0.00  0.00     0.183 C 
BRANCH  31  32
ATOM     32  CB  UNL d   1      18.230  18.128  13.956  0.00  0.00     0.046 C 
BRANCH  32  33
ATOM     33  CG  UNL d   1      17.847  18.566  15.377  0.00  0.00     0.112 C 
BRANCH  33  34
ATOM     34  CD  UNL d   1      18.616  17.786  16.418  0.00  0.00     0.139 C 
ATOM     35  OE2 UNL d   1      19.603  17.111  16.186  0.00  0.00    -0.650 OA
BRANCH  34  36
ATOM     36  OE1 UNL d   1      18.069  17.862  17.653  0.00  0.00    -0.776 OA
ATOM     37  HE1 UNL d   1      17.910  16.997  18.078  0.00  0.00     0.167 HD
ENDBRANCH  34  36
ENDBRANCH  33  34
ENDBRANCH  32  33
ENDBRANCH  31  32
BRANCH  31  38
ATOM     38  C   UNL d   1      18.703  20.481  13.033  0.00  0.00     0.163 C 
ATOM     39  OXT UNL d   1      17.632  20.684  12.464  0.00  0.00    -0.648 OA
BRANCH  38  40
ATOM     40  O   UNL d   1      19.396  21.496  13.577  0.00  0.00    -0.775 OA
ATOM     41  H   UNL d   1      19.021  21.811  14.436  0.00  0.00     0.167 HD
ENDBRANCH  38  40
ENDBRANCH  31  38
ENDBRANCH  29  31
ENDBRANCH   4  27
TORSDOF 12
ENDMDL
MODEL 5
REMARK VINA RESULT:      -8.4      1.401      1.847
REMARK  12 active torsions:
REMARK  status: ('A' for Active; 'I' for Inactive)
REMARK    1  A    between atoms: O_3  and  C_31 
REMARK    2  A    between atoms: OE1_5  and  CD_32 
REMARK    3  A    between atoms: N_9  and  C_16 
REMARK    4  A    between atoms: N_9  and  C_20 
REMARK    5  A    between atoms: CA_21  and  N_12 
REMARK       I    between atoms: N_12  and  C17_30 
REMARK    6  A    between atoms: N_13  and  C_23 
REMARK    7  A    between atoms: C_14  and  C_16 
REMARK    8  A    between atoms: CA_21  and  CB_22 
REMARK    9  A    between atoms: CA_21  and  C_31 
REMARK   10  A    between atoms: CB_22  and  CG_29 
REMARK   11  A    between atoms: C_26  and  C17_30 
REMARK   12  A    between atoms: CG_29  and  CD_32 
ROOT
ATOM      1  C   UNL d   1      21.085  19.376   8.806  0.00  0.00     0.028 A 
ATOM      2  C   UNL d   1      19.764  19.814   8.969  0.00  0.00     0.030 A 
ATOM      3  C   UNL d   1      21.922  19.390   9.929  0.00  0.00     0.030 A 
ATOM      4  C   UNL d   1      20.136  20.264  11.315  0.00  0.00     0.032 A 
ATOM      5  C   UNL d   1      19.281  20.234  10.215  0.00  0.00     0.019 A 
ATOM      6  C   UNL d   1      21.456  19.821  11.175  0.00  0.00     0.019 A 
ENDROOT
BRANCH   1   7
ATOM      7  N   UNL d   1      21.643  19.061   7.570  0.00  0.00    -0.388 N 
ATOM      8  H   UNL d   1      21.037  18.483   6.985  0.00  0.00     0.159 HD
BRANCH   7   9
ATOM      9  C   UNL d   1      22.364  20.073   6.801  0.00  0.00     0.141 C 
BRANCH   9  10
ATOM     10  C   UNL d   1      21.403  21.052   6.114  0.00  0.00     0.096 C 
ATOM     11  N   UNL d   1      20.774  20.447   4.917  0.00  0.00    -0.278 NA
ATOM     12  C   UNL d   1      20.034  21.329   4.109  0.00  0.00     0.123 A 
ATOM     13  H   UNL d   1      20.258  19.580   5.066  0.00  0.00     0.128 HD
ATOM     14  C   UNL d   1      20.200  22.679   4.108  0.00  0.00     0.153 A 
ATOM     15  C   UNL d   1      18.933  20.783   3.268  0.00  0.00     0.272 A 
ATOM     16  N   UNL d   1      21.148  23.233   4.976  0.00  0.00    -0.371 N 
ATOM     17  N   UNL d   1      19.452  23.527   3.331  0.00  0.00    -0.201 NA
ATOM     18  C   UNL d   1      22.101  22.381   5.697  0.00  0.00     0.142 C 
ATOM     19  H   UNL d   1      21.498  24.113   4.612  0.00  0.00     0.161 HD
ATOM     20  C   UNL d   1      18.498  23.030   2.616  0.00  0.00     0.181 A 
ATOM     21  N   UNL d   1      18.232  21.699   2.548  0.00  0.00    -0.297 N 
ATOM     22  H   UNL d   1      17.447  21.356   2.025  0.00  0.00     0.171 HD
ATOM     23  O   UNL d   1      18.650  19.586   3.267  0.00  0.00    -0.266 OA
BRANCH  20  24
ATOM     24  N   UNL d   1      17.703  23.846   1.882  0.00  0.00    -0.272 NA
ATOM     25  H   UNL d   1      17.171  24.549   2.374  0.00  0.00     0.127 HD
ATOM     26  H   UNL d   1      17.162  23.335   1.193  0.00  0.00     0.127 HD
ENDBRANCH  20  24
ENDBRANCH   9  10
ENDBRANCH   7   9
ENDBRANCH   1   7
BRANCH   4  27
ATOM     27  C17 <1> d   1      19.716  20.829  12.623  0.00  0.00     0.252 C 
ATOM     28  O   UNL d   1      19.864  22.019  12.875  0.00  0.00    -0.268 OA
ATOM     29  N   UNL d   1      18.996  20.001  13.450  0.00  0.00    -0.343 N 
ATOM     30  H   UNL d   1      18.481  20.422  14.213  0.00  0.00     0.163 HD
BRANCH  29  31
ATOM     31  CA  UNL d   1      18.772  18.557  13.244  0.00  0.00     0.183 C 
BRANCH  31  32
ATOM     32  CB  UNL d   1      19.817  17.710  13.982  0.00  0.00     0.046 C 
BRANCH  32  33
ATOM     33  CG  UNL d   1      20.100  18.166  15.422  0.00  0.00     0.112 C 
BRANCH  33  34
ATOM     34  CD  UNL d   1      21.462  18.811  15.536  0.00  0.00     0.139 C 
ATOM     35  OE2 UNL d   1      22.037  19.378  14.623  0.00  0.00    -0.650 OA
BRANCH  34  36
ATOM     36  OE1 UNL d   1      22.025  18.655  16.755  0.00  0.00    -0.776 OA
ATOM     37  HE1 UNL d   1      22.529  17.825  16.864  0.00  0.00     0.167 HD
ENDBRANCH  34  36
ENDBRANCH  33  34
ENDBRANCH  32  33
ENDBRANCH  31  32
BRANCH  31  38
ATOM     38  C   UNL d   1      17.327  18.026  13.421  0.00  0.00     0.163 C 
ATOM     39  OXT UNL d   1      16.798  17.954  14.528  0.00  0.00    -0.648 OA
BRANCH  38  40
ATOM     40  O   UNL d   1      16.630  17.747  12.306  0.00  0.00    -0.775 OA
ATOM     41  H   UNL d   1      15.652  17.830  12.424  0.00  0.00     0.167 HD
ENDBRANCH  38  40
ENDBRANCH  31  38
ENDBRANCH  29  31
ENDBRANCH   4  27
TORSDOF 12
ENDMDL
MODEL 6
REMARK VINA RESULT:      -8.4      4.989      8.648
REMARK  12 active torsions:
REMARK  status: ('A' for Active; 'I' for Inactive)
REMARK    1  A    between atoms: O_3  and  C_31 
REMARK    2  A    between atoms: OE1_5  and  CD_32 
REMARK    3  A    between atoms: N_9  and  C_16 
REMARK    4  A    between atoms: N_9  and  C_20 
REMARK    5  A    between atoms: CA_21  and  N_12 
REMARK       I    between atoms: N_12  and  C17_30 
REMARK    6  A    between atoms: N_13  and  C_23 
REMARK    7  A    between atoms: C_14  and  C_16 
REMARK    8  A    between atoms: CA_21  and  CB_22 
REMARK    9  A    between atoms: CA_21  and  C_31 
REMARK   10  A    between atoms: CB_22  and  CG_29 
REMARK   11  A    between atoms: C_26  and  C17_30 
REMARK   12  A    between atoms: CG_29  and  CD_32 
ROOT
ATOM      1  C   UNL d   1      20.389  18.384  10.000  0.00  0.00     0.028 A 
ATOM      2  C   UNL d   1      21.723  18.115  10.336  0.00  0.00     0.030 A 
ATOM      3  C   UNL d   1      20.016  19.723   9.826  0.00  0.00     0.030 A 
ATOM      4  C   UNL d   1      22.269  20.470  10.323  0.00  0.00     0.032 A 
ATOM      5  C   UNL d   1      22.664  19.143  10.477  0.00  0.00     0.019 A 
ATOM      6  C   UNL d   1      20.943  20.760   9.977  0.00  0.00     0.019 A 
ENDROOT
BRANCH   1   7
ATOM      7  N   UNL d   1      19.394  17.411   9.963  0.00  0.00    -0.388 N 
ATOM      8  H   UNL d   1      19.368  16.890   9.085  0.00  0.00     0.159 HD
BRANCH   7   9
ATOM      9  C   UNL d   1      19.141  16.564  11.126  0.00  0.00     0.141 C 
BRANCH   9  10
ATOM     10  C   UNL d   1      18.544  17.364  12.291  0.00  0.00     0.096 C 
ATOM     11  N   UNL d   1      19.163  16.989  13.583  0.00  0.00    -0.278 NA
ATOM     12  C   UNL d   1      18.545  17.521  14.729  0.00  0.00     0.123 A 
ATOM     13  H   UNL d   1      20.177  17.086  13.645  0.00  0.00     0.128 HD
ATOM     14  C   UNL d   1      17.261  17.966  14.762  0.00  0.00     0.153 A 
ATOM     15  C   UNL d   1      19.357  17.705  15.965  0.00  0.00     0.272 A 
ATOM     16  N   UNL d   1      16.509  17.915  13.583  0.00  0.00    -0.371 N 
ATOM     17  N   UNL d   1      16.681  18.506  15.882  0.00  0.00    -0.201 NA
ATOM     18  C   UNL d   1      17.000  17.192  12.404  0.00  0.00     0.142 C 
ATOM     19  H   UNL d   1      15.519  17.843  13.791  0.00  0.00     0.161 HD
ATOM     20  C   UNL d   1      17.408  18.662  16.939  0.00  0.00     0.181 A 
ATOM     21  N   UNL d   1      18.706  18.265  17.019  0.00  0.00    -0.297 N 
ATOM     22  H   UNL d   1      19.254  18.454  17.838  0.00  0.00     0.171 HD
ATOM     23  O   UNL d   1      20.550  17.411  16.007  0.00  0.00    -0.266 OA
BRANCH  20  24
ATOM     24  N   UNL d   1      16.883  19.244  18.045  0.00  0.00    -0.272 NA
ATOM     25  H   UNL d   1      17.413  19.182  18.903  0.00  0.00     0.127 HD
ATOM     26  H   UNL d   1      15.898  19.030  18.160  0.00  0.00     0.127 HD
ENDBRANCH  20  24
ENDBRANCH   9  10
ENDBRANCH   7   9
ENDBRANCH   1   7
BRANCH   4  27
ATOM     27  C17 <1> d   1      23.190  21.602  10.596  0.00  0.00     0.252 C 
ATOM     28  O   UNL d   1      23.777  22.175   9.684  0.00  0.00    -0.268 OA
ATOM     29  N   UNL d   1      23.210  22.086  11.881  0.00  0.00    -0.343 N 
ATOM     30  H   UNL d   1      23.616  23.000  12.040  0.00  0.00     0.163 HD
BRANCH  29  31
ATOM     31  CA  UNL d   1      22.550  21.466  13.047  0.00  0.00     0.183 C 
BRANCH  31  32
ATOM     32  CB  UNL d   1      23.521  21.301  14.225  0.00  0.00     0.046 C 
BRANCH  32  33
ATOM     33  CG  UNL d   1      23.448  19.932  14.918  0.00  0.00     0.112 C 
BRANCH  33  34
ATOM     34  CD  UNL d   1      22.775  20.035  16.267  0.00  0.00     0.139 C 
ATOM     35  OE2 UNL d   1      22.351  21.069  16.751  0.00  0.00    -0.650 OA
BRANCH  34  36
ATOM     36  OE1 UNL d   1      22.730  18.857  16.931  0.00  0.00    -0.776 OA
ATOM     37  HE1 UNL d   1      22.124  18.848  17.697  0.00  0.00     0.167 HD
ENDBRANCH  34  36
ENDBRANCH  33  34
ENDBRANCH  32  33
ENDBRANCH  31  32
BRANCH  31  38
ATOM     38  C   UNL d   1      21.172  22.031  13.473  0.00  0.00     0.163 C 
ATOM     39  OXT UNL d   1      20.266  21.298  13.863  0.00  0.00    -0.648 OA
BRANCH  38  40
ATOM     40  O   UNL d   1      21.037  23.368  13.506  0.00  0.00    -0.775 OA
ATOM     41  H   UNL d   1      21.495  23.790  14.274  0.00  0.00     0.167 HD
ENDBRANCH  38  40
ENDBRANCH  31  38
ENDBRANCH  29  31
ENDBRANCH   4  27
TORSDOF 12
ENDMDL
MODEL 7
REMARK VINA RESULT:      -8.3      2.388      3.962
REMARK  12 active torsions:
REMARK  status: ('A' for Active; 'I' for Inactive)
REMARK    1  A    between atoms: O_3  and  C_31 
REMARK    2  A    between atoms: OE1_5  and  CD_32 
REMARK    3  A    between atoms: N_9  and  C_16 
REMARK    4  A    between atoms: N_9  and  C_20 
REMARK    5  A    between atoms: CA_21  and  N_12 
REMARK       I    between atoms: N_12  and  C17_30 
REMARK    6  A    between atoms: N_13  and  C_23 
REMARK    7  A    between atoms: C_14  and  C_16 
REMARK    8  A    between atoms: CA_21  and  CB_22 
REMARK    9  A    between atoms: CA_21  and  C_31 
REMARK   10  A    between atoms: CB_22  and  CG_29 
REMARK   11  A    between atoms: C_26  and  C17_30 
REMARK   12  A    between atoms: CG_29  and  CD_32 
ROOT
ATOM      1  C   UNL d   1      21.971  20.918  11.882  0.00  0.00     0.028 A 
ATOM      2  C   UNL d   1      21.314  21.482  12.984  0.00  0.00     0.030 A 
ATOM      3  C   UNL d   1      22.483  19.622  12.018  0.00  0.00     0.030 A 
ATOM      4  C   UNL d   1      21.691  19.492  14.306  0.00  0.00     0.032 A 
ATOM      5  C   UNL d   1      21.153  20.772  14.181  0.00  0.00     0.019 A 
ATOM      6  C   UNL d   1      22.341  18.908  13.213  0.00  0.00     0.019 A 
ENDROOT
BRANCH   1   7
ATOM      7  N   UNL d   1      22.258  21.623  10.716  0.00  0.00    -0.388 N 
ATOM      8  H   UNL d   1      22.407  22.622  10.871  0.00  0.00     0.159 HD
BRANCH   7   9
ATOM      9  C   UNL d   1      23.170  21.068   9.719  0.00  0.00     0.141 C 
BRANCH   9  10
ATOM     10  C   UNL d   1      22.535  21.041   8.323  0.00  0.00     0.096 C 
ATOM     11  N   UNL d   1      22.492  22.394   7.720  0.00  0.00    -0.278 NA
ATOM     12  C   UNL d   1      21.749  22.503   6.530  0.00  0.00     0.123 A 
ATOM     13  H   UNL d   1      23.384  22.879   7.630  0.00  0.00     0.128 HD
ATOM     14  C   UNL d   1      20.782  21.624   6.154  0.00  0.00     0.153 A 
ATOM     15  C   UNL d   1      22.092  23.585   5.565  0.00  0.00     0.272 A 
ATOM     16  N   UNL d   1      20.519  20.530   6.985  0.00  0.00    -0.371 N 
ATOM     17  N   UNL d   1      20.085  21.732   4.978  0.00  0.00    -0.201 NA
ATOM     18  C   UNL d   1      21.095  20.449   8.334  0.00  0.00     0.142 C 
ATOM     19  H   UNL d   1      19.562  20.213   6.872  0.00  0.00     0.161 HD
ATOM     20  C   UNL d   1      20.405  22.675   4.154  0.00  0.00     0.181 A 
ATOM     21  N   UNL d   1      21.362  23.603   4.417  0.00  0.00    -0.297 N 
ATOM     22  H   UNL d   1      21.622  24.286   3.730  0.00  0.00     0.171 HD
ATOM     23  O   UNL d   1      23.007  24.378   5.778  0.00  0.00    -0.266 OA
BRANCH  20  24
ATOM     24  N   UNL d   1      19.776  22.776   2.958  0.00  0.00    -0.272 NA
ATOM     25  H   UNL d   1      18.790  22.997   2.965  0.00  0.00     0.127 HD
ATOM     26  H   UNL d   1      20.016  22.014   2.333  0.00  0.00     0.127 HD
ENDBRANCH  20  24
ENDBRANCH   9  10
ENDBRANCH   7   9
ENDBRANCH   1   7
BRANCH   4  27
ATOM     27  C17 <1> d   1      21.669  18.752  15.593  0.00  0.00     0.252 C 
ATOM     28  O   UNL d   1      22.659  18.710  16.316  0.00  0.00    -0.268 OA
ATOM     29  N   UNL d   1      20.450  18.278  16.012  0.00  0.00    -0.343 N 
ATOM     30  H   UNL d   1      20.353  18.007  16.983  0.00  0.00     0.163 HD
BRANCH  29  31
ATOM     31  CA  UNL d   1      19.207  18.269  15.216  0.00  0.00     0.183 C 
BRANCH  31  32
ATOM     32  CB  UNL d   1      19.168  17.084  14.242  0.00  0.00     0.046 C 
BRANCH  32  33
ATOM     33  CG  UNL d   1      19.176  17.482  12.758  0.00  0.00     0.112 C 
BRANCH  33  34
ATOM     34  CD  UNL d   1      18.020  18.399  12.430  0.00  0.00     0.139 C 
ATOM     35  OE2 UNL d   1      18.128  19.587  12.185  0.00  0.00    -0.650 OA
BRANCH  34  36
ATOM     36  OE1 UNL d   1      16.817  17.781  12.485  0.00  0.00    -0.776 OA
ATOM     37  HE1 UNL d   1      16.808  16.881  12.107  0.00  0.00     0.167 HD
ENDBRANCH  34  36
ENDBRANCH  33  34
ENDBRANCH  32  33
ENDBRANCH  31  32
BRANCH  31  38
ATOM     38  C   UNL d   1      17.872  18.474  15.974  0.00  0.00     0.163 C 
ATOM     39  OXT UNL d   1      16.787  18.236  15.446  0.00  0.00    -0.648 OA
BRANCH  38  40
ATOM     40  O   UNL d   1      17.945  18.820  17.271  0.00  0.00    -0.775 OA
ATOM     41  H   UNL d   1      18.220  18.075  17.861  0.00  0.00     0.167 HD
ENDBRANCH  38  40
ENDBRANCH  31  38
ENDBRANCH  29  31
ENDBRANCH   4  27
TORSDOF 12
ENDMDL
MODEL 8
REMARK VINA RESULT:      -8.2      3.246     10.340
REMARK  12 active torsions:
REMARK  status: ('A' for Active; 'I' for Inactive)
REMARK    1  A    between atoms: O_3  and  C_31 
REMARK    2  A    between atoms: OE1_5  and  CD_32 
REMARK    3  A    between atoms: N_9  and  C_16 
REMARK    4  A    between atoms: N_9  and  C_20 
REMARK    5  A    between atoms: CA_21  and  N_12 
REMARK       I    between atoms: N_12  and  C17_30 
REMARK    6  A    between atoms: N_13  and  C_23 
REMARK    7  A    between atoms: C_14  and  C_16 
REMARK    8  A    between atoms: CA_21  and  CB_22 
REMARK    9  A    between atoms: CA_21  and  C_31 
REMARK   10  A    between atoms: CB_22  and  CG_29 
REMARK   11  A    between atoms: C_26  and  C17_30 
REMARK   12  A    between atoms: CG_29  and  CD_32 
ROOT
ATOM      1  C   UNL d   1      20.171  19.124   9.228  0.00  0.00     0.028 A 
ATOM      2  C   UNL d   1      21.471  18.706   8.911  0.00  0.00     0.030 A 
ATOM      3  C   UNL d   1      19.876  20.488   9.108  0.00  0.00     0.030 A 
ATOM      4  C   UNL d   1      22.138  20.969   8.381  0.00  0.00     0.032 A 
ATOM      5  C   UNL d   1      22.444  19.612   8.471  0.00  0.00     0.019 A 
ATOM      6  C   UNL d   1      20.843  21.405   8.682  0.00  0.00     0.019 A 
ENDROOT
BRANCH   1   7
ATOM      7  N   UNL d   1      19.207  18.285   9.779  0.00  0.00    -0.388 N 
ATOM      8  H   UNL d   1      18.672  17.765   9.080  0.00  0.00     0.159 HD
BRANCH   7   9
ATOM      9  C   UNL d   1      19.509  17.485  10.963  0.00  0.00     0.141 C 
BRANCH   9  10
ATOM     10  C   UNL d   1      18.757  17.996  12.199  0.00  0.00     0.096 C 
ATOM     11  N   UNL d   1      19.443  17.605  13.453  0.00  0.00    -0.278 NA
ATOM     12  C   UNL d   1      18.728  17.855  14.638  0.00  0.00     0.123 A 
ATOM     13  H   UNL d   1      20.413  17.904  13.551  0.00  0.00     0.128 HD
ATOM     14  C   UNL d   1      17.379  18.014  14.692  0.00  0.00     0.153 A 
ATOM     15  C   UNL d   1      19.484  18.054  15.906  0.00  0.00     0.272 A 
ATOM     16  N   UNL d   1      16.653  17.950  13.497  0.00  0.00    -0.371 N 
ATOM     17  N   UNL d   1      16.700  18.282  15.854  0.00  0.00    -0.201 NA
ATOM     18  C   UNL d   1      17.285  17.492  12.253  0.00  0.00     0.142 C 
ATOM     19  H   UNL d   1      15.701  17.647  13.671  0.00  0.00     0.161 HD
ATOM     20  C   UNL d   1      17.378  18.458  16.939  0.00  0.00     0.181 A 
ATOM     21  N   UNL d   1      18.730  18.335  17.003  0.00  0.00    -0.297 N 
ATOM     22  H   UNL d   1      19.227  18.533  17.851  0.00  0.00     0.171 HD
ATOM     23  O   UNL d   1      20.712  18.013  15.942  0.00  0.00    -0.266 OA
BRANCH  20  24
ATOM     24  N   UNL d   1      16.744  18.779  18.093  0.00  0.00    -0.272 NA
ATOM     25  H   UNL d   1      15.747  18.938  18.051  0.00  0.00     0.127 HD
ATOM     26  H   UNL d   1      17.245  19.485  18.622  0.00  0.00     0.127 HD
ENDBRANCH  20  24
ENDBRANCH   9  10
ENDBRANCH   7   9
ENDBRANCH   1   7
BRANCH   4  27
ATOM     27  C17 <1> d   1      23.168  21.987   8.053  0.00  0.00     0.252 C 
ATOM     28  O   UNL d   1      23.947  22.398   8.906  0.00  0.00    -0.268 OA
ATOM     29  N   UNL d   1      23.321  22.305   6.726  0.00  0.00    -0.343 N 
ATOM     30  H   UNL d   1      24.167  22.785   6.445  0.00  0.00     0.163 HD
BRANCH  29  31
ATOM     31  CA  UNL d   1      22.433  21.875   5.627  0.00  0.00     0.183 C 
BRANCH  31  32
ATOM     32  CB  UNL d   1      21.515  23.014   5.162  0.00  0.00     0.046 C 
BRANCH  32  33
ATOM     33  CG  UNL d   1      20.034  22.627   5.048  0.00  0.00     0.112 C 
BRANCH  33  34
ATOM     34  CD  UNL d   1      19.521  22.825   3.640  0.00  0.00     0.139 C 
ATOM     35  OE2 UNL d   1      18.343  22.835   3.328  0.00  0.00    -0.650 OA
BRANCH  34  36
ATOM     36  OE1 UNL d   1      20.510  22.941   2.724  0.00  0.00    -0.776 OA
ATOM     37  HE1 UNL d   1      20.944  23.816   2.707  0.00  0.00     0.167 HD
ENDBRANCH  34  36
ENDBRANCH  33  34
ENDBRANCH  32  33
ENDBRANCH  31  32
BRANCH  31  38
ATOM     38  C   UNL d   1      23.076  21.097   4.452  0.00  0.00     0.163 C 
ATOM     39  OXT UNL d   1      23.225  21.608   3.344  0.00  0.00    -0.648 OA
BRANCH  38  40
ATOM     40  O   UNL d   1      23.568  19.874   4.717  0.00  0.00    -0.775 OA
ATOM     41  H   UNL d   1      24.065  19.478   3.959  0.00  0.00     0.167 HD
ENDBRANCH  38  40
ENDBRANCH  31  38
ENDBRANCH  29  31
ENDBRANCH   4  27
TORSDOF 12
ENDMDL
MODEL 9
REMARK VINA RESULT:      -8.2      1.608      2.467
REMARK  12 active torsions:
REMARK  status: ('A' for Active; 'I' for Inactive)
REMARK    1  A    between atoms: O_3  and  C_31 
REMARK    2  A    between atoms: OE1_5  and  CD_32 
REMARK    3  A    between atoms: N_9  and  C_16 
REMARK    4  A    between atoms: N_9  and  C_20 
REMARK    5  A    between atoms: CA_21  and  N_12 
REMARK       I    between atoms: N_12  and  C17_30 
REMARK    6  A    between atoms: N_13  and  C_23 
REMARK    7  A    between atoms: C_14  and  C_16 
REMARK    8  A    between atoms: CA_21  and  CB_22 
REMARK    9  A    between atoms: CA_21  and  C_31 
REMARK   10  A    between atoms: CB_22  and  CG_29 
REMARK   11  A    between atoms: C_26  and  C17_30 
REMARK   12  A    between atoms: CG_29  and  CD_32 
ROOT
ATOM      1  C   UNL d   1      21.365  19.315   9.092  0.00  0.00     0.028 A 
ATOM      2  C   UNL d   1      20.039  19.629   9.421  0.00  0.00     0.030 A 
ATOM      3  C   UNL d   1      21.897  18.120   9.594  0.00  0.00     0.030 A 
ATOM      4  C   UNL d   1      19.813  17.600  10.718  0.00  0.00     0.032 A 
ATOM      5  C   UNL d   1      19.258  18.773  10.208  0.00  0.00     0.019 A 
ATOM      6  C   UNL d   1      21.132  17.264  10.393  0.00  0.00     0.019 A 
ENDROOT
BRANCH   1   7
ATOM      7  N   UNL d   1      22.215  20.184   8.414  0.00  0.00    -0.388 N 
ATOM      8  H   UNL d   1      23.111  20.325   8.885  0.00  0.00     0.159 HD
BRANCH   7   9
ATOM      9  C   UNL d   1      22.350  20.107   6.962  0.00  0.00     0.141 C 
BRANCH   9  10
ATOM     10  C   UNL d   1      21.396  21.077   6.252  0.00  0.00     0.096 C 
ATOM     11  N   UNL d   1      20.799  20.465   5.043  0.00  0.00    -0.278 NA
ATOM     12  C   UNL d   1      20.069  21.339   4.218  0.00  0.00     0.123 A 
ATOM     13  H   UNL d   1      20.287  19.594   5.182  0.00  0.00     0.128 HD
ATOM     14  C   UNL d   1      20.224  22.690   4.218  0.00  0.00     0.153 A 
ATOM     15  C   UNL d   1      18.991  20.782   3.354  0.00  0.00     0.272 A 
ATOM     16  N   UNL d   1      21.147  23.253   5.106  0.00  0.00    -0.371 N 
ATOM     17  N   UNL d   1      19.486  23.531   3.424  0.00  0.00    -0.201 NA
ATOM     18  C   UNL d   1      22.092  22.411   5.850  0.00  0.00     0.142 C 
ATOM     19  H   UNL d   1      21.498  24.136   4.749  0.00  0.00     0.161 HD
ATOM     20  C   UNL d   1      18.552  23.025   2.689  0.00  0.00     0.181 A 
ATOM     21  N   UNL d   1      18.299  21.692   2.616  0.00  0.00    -0.297 N 
ATOM     22  H   UNL d   1      17.529  21.341   2.077  0.00  0.00     0.171 HD
ATOM     23  O   UNL d   1      18.720  19.583   3.348  0.00  0.00    -0.266 OA
BRANCH  20  24
ATOM     24  N   UNL d   1      17.766  23.833   1.936  0.00  0.00    -0.272 NA
ATOM     25  H   UNL d   1      16.979  23.412   1.463  0.00  0.00     0.127 HD
ATOM     26  H   UNL d   1      18.310  24.454   1.346  0.00  0.00     0.127 HD
ENDBRANCH  20  24
ENDBRANCH   9  10
ENDBRANCH   7   9
ENDBRANCH   1   7
BRANCH   4  27
ATOM     27  C17 <1> d   1      19.076  16.729  11.668  0.00  0.00     0.252 C 
ATOM     28  O   UNL d   1      18.521  15.704  11.287  0.00  0.00    -0.268 OA
ATOM     29  N   UNL d   1      19.201  17.026  13.003  0.00  0.00    -0.343 N 
ATOM     30  H   UNL d   1      18.936  16.318  13.676  0.00  0.00     0.163 HD
BRANCH  29  31
ATOM     31  CA  UNL d   1      19.837  18.236  13.561  0.00  0.00     0.183 C 
BRANCH  31  32
ATOM     32  CB  UNL d   1      18.831  19.097  14.338  0.00  0.00     0.046 C 
BRANCH  32  33
ATOM     33  CG  UNL d   1      17.694  18.303  14.998  0.00  0.00     0.112 C 
BRANCH  33  34
ATOM     34  CD  UNL d   1      17.829  18.300  16.503  0.00  0.00     0.139 C 
ATOM     35  OE2 UNL d   1      17.019  18.791  17.271  0.00  0.00    -0.650 OA
BRANCH  34  36
ATOM     36  OE1 UNL d   1      18.981  17.737  16.934  0.00  0.00    -0.776 OA
ATOM     37  HE1 UNL d   1      19.754  17.912  16.364  0.00  0.00     0.167 HD
ENDBRANCH  34  36
ENDBRANCH  33  34
ENDBRANCH  32  33
ENDBRANCH  31  32
BRANCH  31  38
ATOM     38  C   UNL d   1      21.182  18.056  14.308  0.00  0.00     0.163 C 
ATOM     39  OXT UNL d   1      21.411  18.626  15.372  0.00  0.00    -0.648 OA
BRANCH  38  40
ATOM     40  O   UNL d   1      22.054  17.165  13.803  0.00  0.00    -0.775 OA
ATOM     41  H   UNL d   1      22.139  17.213  12.819  0.00  0.00     0.167 HD
ENDBRANCH  38  40
ENDBRANCH  31  38
ENDBRANCH  29  31
ENDBRANCH   4  27
TORSDOF 12
ENDMDL
