MODEL 1
REMARK VINA RESULT:      -6.1      0.000      0.000
REMARK  3 active torsions:
REMARK  status: ('A' for Active; 'I' for Inactive)
REMARK    1  A    between atoms: C_1  and  O_3 
REMARK    2  A    between atoms: C_1  and  C_4 
REMARK    3  A    between atoms: C_5  and  O_10 
ROOT
ATOM      1  C   UNL d   1       6.965 -10.623 -26.204  0.00  0.00     0.070 A 
ATOM      2  C   UNL d   1       6.197 -11.617 -25.581  0.00  0.00     0.082 A 
ATOM      3  C   UNL d   1       6.524 -12.064 -24.301  0.00  0.00     0.037 A 
ATOM      4  C   UNL d   1       7.623 -11.527 -23.632  0.00  0.00     0.003 A 
ATOM      5  C   UNL d   1       8.398 -10.542 -24.242  0.00  0.00     0.001 A 
ATOM      6  C   UNL d   1       8.070 -10.090 -25.523  0.00  0.00     0.021 A 
ENDROOT
BRANCH   1   7
ATOM      7  C   UNL d   1       6.678 -10.085 -27.555  0.00  0.00     0.178 C 
ATOM      8  O   UNL d   1       5.629 -10.191 -28.164  0.00  0.00    -0.646 OA
BRANCH   7   9
ATOM      9  O   UNL d   1       7.728  -9.433 -28.099  0.00  0.00    -0.773 OA
ATOM     10  H   UNL d   1       8.255  -9.175 -27.311  0.00  0.00     0.167 HD
ENDBRANCH   7   9
ENDBRANCH   1   7
BRANCH   2  11
ATOM     11  O   UNL d   1       5.106 -12.208 -26.157  0.00  0.00    -0.360 OA
ATOM     12  H   UNL d   1       4.817 -12.933 -25.563  0.00  0.00     0.217 HD
ENDBRANCH   2  11
TORSDOF 3
ENDMDL
MODEL 2
REMARK VINA RESULT:      -6.0      1.256      2.291
REMARK  3 active torsions:
REMARK  status: ('A' for Active; 'I' for Inactive)
REMARK    1  A    between atoms: C_1  and  O_3 
REMARK    2  A    between atoms: C_1  and  C_4 
REMARK    3  A    between atoms: C_5  and  O_10 
ROOT
ATOM      1  C   UNL d   1       7.015 -11.476 -26.402  0.00  0.00     0.070 A 
ATOM      2  C   UNL d   1       8.000 -10.763 -25.703  0.00  0.00     0.082 A 
ATOM      3  C   UNL d   1       8.110 -10.883 -24.318  0.00  0.00     0.037 A 
ATOM      4  C   UNL d   1       7.236 -11.712 -23.616  0.00  0.00     0.003 A 
ATOM      5  C   UNL d   1       6.249 -12.422 -24.297  0.00  0.00     0.001 A 
ATOM      6  C   UNL d   1       6.139 -12.305 -25.685  0.00  0.00     0.021 A 
ENDROOT
BRANCH   1   7
ATOM      7  C   UNL d   1       6.839 -11.413 -27.872  0.00  0.00     0.178 C 
ATOM      8  O   UNL d   1       5.795 -11.568 -28.479  0.00  0.00    -0.646 OA
BRANCH   7   9
ATOM      9  O   UNL d   1       7.989 -11.162 -28.532  0.00  0.00    -0.773 OA
ATOM     10  H   UNL d   1       7.687 -11.055 -29.462  0.00  0.00     0.167 HD
ENDBRANCH   7   9
ENDBRANCH   1   7
BRANCH   2  11
ATOM     11  O   UNL d   1       8.898  -9.922 -26.301  0.00  0.00    -0.360 OA
ATOM     12  H   UNL d   1       9.670  -9.841 -25.701  0.00  0.00     0.217 HD
ENDBRANCH   2  11
TORSDOF 3
ENDMDL
MODEL 3
REMARK VINA RESULT:      -6.0      1.700      3.169
REMARK  3 active torsions:
REMARK  status: ('A' for Active; 'I' for Inactive)
REMARK    1  A    between atoms: C_1  and  O_3 
REMARK    2  A    between atoms: C_1  and  C_4 
REMARK    3  A    between atoms: C_5  and  O_10 
ROOT
ATOM      1  C   UNL d   1       7.030 -11.050 -25.214  0.00  0.00     0.070 A 
ATOM      2  C   UNL d   1       7.984 -10.969 -24.189  0.00  0.00     0.082 A 
ATOM      3  C   UNL d   1       8.963  -9.977 -24.213  0.00  0.00     0.037 A 
ATOM      4  C   UNL d   1       9.004  -9.059 -25.262  0.00  0.00     0.003 A 
ATOM      5  C   UNL d   1       8.065  -9.131 -26.290  0.00  0.00     0.001 A 
ATOM      6  C   UNL d   1       7.081 -10.122 -26.266  0.00  0.00     0.021 A 
ENDROOT
BRANCH   1   7
ATOM      7  C   UNL d   1       5.950 -12.065 -25.258  0.00  0.00     0.178 C 
ATOM      8  O   UNL d   1       5.693 -12.879 -24.390  0.00  0.00    -0.646 OA
BRANCH   7   9
ATOM      9  O   UNL d   1       5.230 -12.022 -26.399  0.00  0.00    -0.773 OA
ATOM     10  H   UNL d   1       4.816 -11.131 -26.362  0.00  0.00     0.167 HD
ENDBRANCH   7   9
ENDBRANCH   1   7
BRANCH   2  11
ATOM     11  O   UNL d   1       8.029 -11.826 -23.124  0.00  0.00    -0.360 OA
ATOM     12  H   UNL d   1       7.118 -11.903 -22.770  0.00  0.00     0.217 HD
ENDBRANCH   2  11
TORSDOF 3
ENDMDL
MODEL 4
REMARK VINA RESULT:      -6.0      2.739      4.136
REMARK  3 active torsions:
REMARK  status: ('A' for Active; 'I' for Inactive)
REMARK    1  A    between atoms: C_1  and  O_3 
REMARK    2  A    between atoms: C_1  and  C_4 
REMARK    3  A    between atoms: C_5  and  O_10 
ROOT
ATOM      1  C   UNL d   1       7.436  -9.707 -24.636  0.00  0.00     0.070 A 
ATOM      2  C   UNL d   1       8.002 -10.012 -25.883  0.00  0.00     0.082 A 
ATOM      3  C   UNL d   1       7.471  -9.468 -27.051  0.00  0.00     0.037 A 
ATOM      4  C   UNL d   1       6.367  -8.618 -26.990  0.00  0.00     0.003 A 
ATOM      5  C   UNL d   1       5.792  -8.311 -25.758  0.00  0.00     0.001 A 
ATOM      6  C   UNL d   1       6.324  -8.852 -24.585  0.00  0.00     0.021 A 
ENDROOT
BRANCH   1   7
ATOM      7  C   UNL d   1       7.946 -10.233 -23.348  0.00  0.00     0.178 C 
ATOM      8  O   UNL d   1       8.322  -9.570 -22.399  0.00  0.00    -0.646 OA
BRANCH   7   9
ATOM      9  O   UNL d   1       7.971 -11.582 -23.299  0.00  0.00    -0.773 OA
ATOM     10  H   UNL d   1       8.649 -11.811 -23.973  0.00  0.00     0.167 HD
ENDBRANCH   7   9
ENDBRANCH   1   7
BRANCH   2  11
ATOM     11  O   UNL d   1       9.081 -10.838 -26.046  0.00  0.00    -0.360 OA
ATOM     12  H   UNL d   1       9.177 -11.007 -27.007  0.00  0.00     0.217 HD
ENDBRANCH   2  11
TORSDOF 3
ENDMDL
MODEL 5
REMARK VINA RESULT:      -5.9      1.900      3.479
REMARK  3 active torsions:
REMARK  status: ('A' for Active; 'I' for Inactive)
REMARK    1  A    between atoms: C_1  and  O_3 
REMARK    2  A    between atoms: C_1  and  C_4 
REMARK    3  A    between atoms: C_5  and  O_10 
ROOT
ATOM      1  C   UNL d   1       6.205 -10.770 -25.181  0.00  0.00     0.070 A 
ATOM      2  C   UNL d   1       5.831 -10.883 -26.528  0.00  0.00     0.082 A 
ATOM      3  C   UNL d   1       5.690  -9.744 -27.320  0.00  0.00     0.037 A 
ATOM      4  C   UNL d   1       5.917  -8.481 -26.776  0.00  0.00     0.003 A 
ATOM      5  C   UNL d   1       6.284  -8.354 -25.437  0.00  0.00     0.001 A 
ATOM      6  C   UNL d   1       6.428  -9.494 -24.643  0.00  0.00     0.021 A 
ENDROOT
BRANCH   1   7
ATOM      7  C   UNL d   1       6.387 -11.930 -24.276  0.00  0.00     0.178 C 
ATOM      8  O   UNL d   1       5.762 -12.974 -24.310  0.00  0.00    -0.646 OA
BRANCH   7   9
ATOM      9  O   UNL d   1       7.351 -11.733 -23.352  0.00  0.00    -0.773 OA
ATOM     10  H   UNL d   1       7.659 -12.647 -23.160  0.00  0.00     0.167 HD
ENDBRANCH   7   9
ENDBRANCH   1   7
BRANCH   2  11
ATOM     11  O   UNL d   1       5.582 -12.076 -27.151  0.00  0.00    -0.360 OA
ATOM     12  H   UNL d   1       4.799 -11.948 -27.728  0.00  0.00     0.217 HD
ENDBRANCH   2  11
TORSDOF 3
ENDMDL
MODEL 6
REMARK VINA RESULT:      -5.8      0.949      2.447
REMARK  3 active torsions:
REMARK  status: ('A' for Active; 'I' for Inactive)
REMARK    1  A    between atoms: C_1  and  O_3 
REMARK    2  A    between atoms: C_1  and  C_4 
REMARK    3  A    between atoms: C_5  and  O_10 
ROOT
ATOM      1  C   UNL d   1       6.898 -10.894 -26.417  0.00  0.00     0.070 A 
ATOM      2  C   UNL d   1       7.827  -9.845 -26.474  0.00  0.00     0.082 A 
ATOM      3  C   UNL d   1       8.672  -9.590 -25.395  0.00  0.00     0.037 A 
ATOM      4  C   UNL d   1       8.596 -10.377 -24.245  0.00  0.00     0.003 A 
ATOM      5  C   UNL d   1       7.674 -11.419 -24.173  0.00  0.00     0.001 A 
ATOM      6  C   UNL d   1       6.828 -11.678 -25.255  0.00  0.00     0.021 A 
ENDROOT
BRANCH   1   7
ATOM      7  C   UNL d   1       5.973 -11.238 -27.523  0.00  0.00     0.178 C 
ATOM      8  O   UNL d   1       5.770 -12.352 -27.970  0.00  0.00    -0.646 OA
BRANCH   7   9
ATOM      9  O   UNL d   1       5.336 -10.163 -28.033  0.00  0.00    -0.773 OA
ATOM     10  H   UNL d   1       4.644 -10.569 -28.601  0.00  0.00     0.167 HD
ENDBRANCH   7   9
ENDBRANCH   1   7
BRANCH   2  11
ATOM     11  O   UNL d   1       7.973  -9.016 -27.553  0.00  0.00    -0.360 OA
ATOM     12  H   UNL d   1       7.077  -8.717 -27.816  0.00  0.00     0.217 HD
ENDBRANCH   2  11
TORSDOF 3
ENDMDL
MODEL 7
REMARK VINA RESULT:      -5.8      2.397      3.678
REMARK  3 active torsions:
REMARK  status: ('A' for Active; 'I' for Inactive)
REMARK    1  A    between atoms: C_1  and  O_3 
REMARK    2  A    between atoms: C_1  and  C_4 
REMARK    3  A    between atoms: C_5  and  O_10 
ROOT
ATOM      1  C   UNL d   1       7.919 -10.473 -24.462  0.00  0.00     0.070 A 
ATOM      2  C   UNL d   1       7.723 -10.493 -25.850  0.00  0.00     0.082 A 
ATOM      3  C   UNL d   1       6.849 -11.414 -26.427  0.00  0.00     0.037 A 
ATOM      4  C   UNL d   1       6.166 -12.328 -25.624  0.00  0.00     0.003 A 
ATOM      5  C   UNL d   1       6.356 -12.323 -24.244  0.00  0.00     0.001 A 
ATOM      6  C   UNL d   1       7.229 -11.398 -23.664  0.00  0.00     0.021 A 
ENDROOT
BRANCH   1   7
ATOM      7  C   UNL d   1       8.820  -9.519 -23.770  0.00  0.00     0.178 C 
ATOM      8  O   UNL d   1       9.642  -8.794 -24.298  0.00  0.00    -0.646 OA
BRANCH   7   9
ATOM      9  O   UNL d   1       8.656  -9.516 -22.430  0.00  0.00    -0.773 OA
ATOM     10  H   UNL d   1       7.892 -10.121 -22.302  0.00  0.00     0.167 HD
ENDBRANCH   7   9
ENDBRANCH   1   7
BRANCH   2  11
ATOM     11  O   UNL d   1       8.350  -9.642 -26.719  0.00  0.00    -0.360 OA
ATOM     12  H   UNL d   1       9.279  -9.551 -26.421  0.00  0.00     0.217 HD
ENDBRANCH   2  11
TORSDOF 3
ENDMDL
MODEL 8
REMARK VINA RESULT:      -5.8      1.503      3.049
REMARK  3 active torsions:
REMARK  status: ('A' for Active; 'I' for Inactive)
REMARK    1  A    between atoms: C_1  and  O_3 
REMARK    2  A    between atoms: C_1  and  C_4 
REMARK    3  A    between atoms: C_5  and  O_10 
ROOT
ATOM      1  C   UNL d   1       7.240 -10.944 -24.789  0.00  0.00     0.070 A 
ATOM      2  C   UNL d   1       8.222 -10.549 -25.709  0.00  0.00     0.082 A 
ATOM      3  C   UNL d   1       9.221  -9.651 -25.334  0.00  0.00     0.037 A 
ATOM      4  C   UNL d   1       9.247  -9.135 -24.038  0.00  0.00     0.003 A 
ATOM      5  C   UNL d   1       8.275  -9.516 -23.115  0.00  0.00     0.001 A 
ATOM      6  C   UNL d   1       7.275 -10.418 -23.489  0.00  0.00     0.021 A 
ENDROOT
BRANCH   1   7
ATOM      7  C   UNL d   1       6.153 -11.901 -25.104  0.00  0.00     0.178 C 
ATOM      8  O   UNL d   1       5.731 -12.777 -24.371  0.00  0.00    -0.646 OA
BRANCH   7   9
ATOM      9  O   UNL d   1       5.635 -11.726 -26.338  0.00  0.00    -0.773 OA
ATOM     10  H   UNL d   1       6.340 -12.081 -26.923  0.00  0.00     0.167 HD
ENDBRANCH   7   9
ENDBRANCH   1   7
BRANCH   2  11
ATOM     11  O   UNL d   1       8.277 -10.994 -27.002  0.00  0.00    -0.360 OA
ATOM     12  H   UNL d   1       7.785 -10.350 -27.554  0.00  0.00     0.217 HD
ENDBRANCH   2  11
TORSDOF 3
ENDMDL
MODEL 9
REMARK VINA RESULT:      -5.8      2.611      3.430
REMARK  3 active torsions:
REMARK  status: ('A' for Active; 'I' for Inactive)
REMARK    1  A    between atoms: C_1  and  O_3 
REMARK    2  A    between atoms: C_1  and  C_4 
REMARK    3  A    between atoms: C_5  and  O_10 
ROOT
ATOM      1  C   UNL d   1       8.102  -9.878 -25.112  0.00  0.00     0.070 A 
ATOM      2  C   UNL d   1       7.606 -10.942 -24.345  0.00  0.00     0.082 A 
ATOM      3  C   UNL d   1       6.487 -11.657 -24.771  0.00  0.00     0.037 A 
ATOM      4  C   UNL d   1       5.850 -11.315 -25.964  0.00  0.00     0.003 A 
ATOM      5  C   UNL d   1       6.329 -10.256 -26.732  0.00  0.00     0.001 A 
ATOM      6  C   UNL d   1       7.452  -9.540 -26.308  0.00  0.00     0.021 A 
ENDROOT
BRANCH   1   7
ATOM      7  C   UNL d   1       9.291  -9.076 -24.736  0.00  0.00     0.178 C 
ATOM      8  O   UNL d   1      10.285  -8.902 -25.416  0.00  0.00    -0.646 OA
BRANCH   7   9
ATOM      9  O   UNL d   1       9.189  -8.521 -23.510  0.00  0.00    -0.773 OA
ATOM     10  H   UNL d   1       8.741  -7.665 -23.695  0.00  0.00     0.167 HD
ENDBRANCH   7   9
ENDBRANCH   1   7
BRANCH   2  11
ATOM     11  O   UNL d   1       8.157 -11.349 -23.161  0.00  0.00    -0.360 OA
ATOM     12  H   UNL d   1       8.972 -10.822 -23.021  0.00  0.00     0.217 HD
ENDBRANCH   2  11
TORSDOF 3
ENDMDL
