@<TRIPOS>MOLECULE
SAL
 16 16 0 0 0
SMALL
GASTEIGER

@<TRIPOS>ATOM
      1 C           1.0260    0.0969   -0.0752 C.2     1  UNL1        0.3404
      2 O           0.3501    1.1092   -0.0898 O.2     1  UNL1       -0.2450
      3 O           0.4444   -1.1209   -0.0646 O.3     1  UNL1       -0.4770
      4 C           2.5075    0.0326   -0.0610 C.ar    1  UNL1        0.1001
      5 C           3.2361   -1.1649   -0.0451 C.ar    1  UNL1        0.1308
      6 C           4.6304   -1.1435   -0.0210 C.ar    1  UNL1       -0.0194
      7 C           5.3115    0.0738   -0.0167 C.ar    1  UNL1       -0.0583
      8 C           4.5987    1.2715   -0.0384 C.ar    1  UNL1       -0.0608
      9 C           3.2019    1.2522   -0.0595 C.ar    1  UNL1       -0.0442
     10 O           2.6597   -2.4061   -0.0533 O.3     1  UNL1       -0.5059
     11 H          -0.5153   -0.9037   -0.0638 H       1  UNL1        0.2954
     12 H           5.1850   -2.0781   -0.0047 H       1  UNL1        0.0654
     13 H           6.3984    0.0859    0.0028 H       1  UNL1        0.0619
     14 H           5.1296    2.2206   -0.0373 H       1  UNL1        0.0618
     15 H           2.6572    2.1945   -0.0740 H       1  UNL1        0.0627
     16 H           1.6879   -2.2780   -0.0749 H       1  UNL1        0.2922
@<TRIPOS>BOND
     1     1     2    2
     2     1     3    1
     3     1     4    1
     4     3    11    1
     5     4     5   ar
     6     4     9   ar
     7     5     6   ar
     8     5    10    1
     9     6     7   ar
    10     6    12    1
    11     7     8   ar
    12     7    13    1
    13     8     9   ar
    14     8    14    1
    15     9    15    1
    16    10    16    1
