REMARK  3 active torsions:
REMARK  status: ('A' for Active; 'I' for Inactive)
REMARK    1  A    between atoms: C_1  and  O_3 
REMARK    2  A    between atoms: C_1  and  C_4 
REMARK    3  A    between atoms: C_5  and  O_10 
ROOT
ATOM      1  C   UNL d   1       2.507   0.033  -0.061  0.00  0.00     0.070 A 
ATOM      2  C   UNL d   1       3.236  -1.165  -0.045  0.00  0.00     0.082 A 
ATOM      3  C   UNL d   1       4.630  -1.143  -0.021  0.00  0.00     0.037 A 
ATOM      4  C   UNL d   1       5.311   0.074  -0.017  0.00  0.00     0.003 A 
ATOM      5  C   UNL d   1       4.599   1.272  -0.038  0.00  0.00     0.001 A 
ATOM      6  C   UNL d   1       3.202   1.252  -0.059  0.00  0.00     0.021 A 
ENDROOT
BRANCH   1   7
ATOM      7  C   UNL d   1       1.026   0.097  -0.075  0.00  0.00     0.178 C 
ATOM      8  O   UNL d   1       0.350   1.109  -0.090  0.00  0.00    -0.646 OA
BRANCH   7   9
ATOM      9  O   UNL d   1       0.444  -1.121  -0.065  0.00  0.00    -0.773 OA
ATOM     10  H   UNL d   1      -0.515  -0.904  -0.064  0.00  0.00     0.167 HD
ENDBRANCH   7   9
ENDBRANCH   1   7
BRANCH   2  11
ATOM     11  O   UNL d   1       2.660  -2.406  -0.053  0.00  0.00    -0.360 OA
ATOM     12  H   UNL d   1       1.688  -2.278  -0.075  0.00  0.00     0.217 HD
ENDBRANCH   2  11
TORSDOF 3
