MODEL 1
REMARK VINA RESULT:      -7.6      0.000      0.000
REMARK  10 active torsions:
REMARK  status: ('A' for Active; 'I' for Inactive)
REMARK    1  A    between atoms: O_4  and  C_21 
REMARK    2  A    between atoms: O_4  and  C_26 
REMARK    3  A    between atoms: O_5  and  C_22 
REMARK    4  A    between atoms: O_8  and  N_12 
REMARK    5  A    between atoms: CA_16  and  N_11 
REMARK       I    between atoms: N_11  and  C_23 
REMARK    6  A    between atoms: N_14  and  C_29 
REMARK    7  A    between atoms: CA_18  and  C_22 
REMARK    8  A    between atoms: C_19  and  C_21 
REMARK    9  A    between atoms: C_23  and  C_24 
REMARK   10  A    between atoms: C_24  and  C_25 
ROOT
ATOM      1  S   UNL d   1      38.537  -9.639  -1.972  0.00  0.00    -0.136 SA
ATOM      2  O   UNL d   1      41.905  -7.394  -2.854  0.00  0.00    -0.271 OA
ATOM      3  N   UNL d   1      39.691  -7.248  -2.152  0.00  0.00    -0.293 N 
ATOM      4  C   UNL d   1      38.703  -8.059  -2.861  0.00  0.00     0.187 C 
ATOM      5  CA  UNL d   1      39.698  -8.004  -4.077  0.00  0.00     0.211 C 
ATOM      6  C   UNL d   1      40.722  -7.560  -2.988  0.00  0.00     0.251 C 
ATOM      7  CA  UNL d   1      39.672  -7.015  -0.793  0.00  0.00     0.117 C 
ATOM      8  C   UNL d   1      38.857  -7.732   0.037  0.00  0.00    -0.013 C 
ATOM      9  C   UNL d   1      37.949  -8.845  -0.439  0.00  0.00     0.115 C 
ENDROOT
BRANCH   5  10
ATOM     10  N   UNL d   1      39.824  -9.235  -4.935  0.00  0.00    -0.339 N 
ATOM     11  C   UNL d   1      39.078  -9.242  -6.112  0.00  0.00     0.275 C 
ATOM     12  O   UNL d   1      39.118 -10.219  -6.862  0.00  0.00    -0.266 OA
ATOM     13  H   UNL d   1      40.543  -9.939  -4.804  0.00  0.00     0.163 HD
BRANCH  11  14
ATOM     14  C   UNL d   1      38.212  -8.051  -6.535  0.00  0.00     0.180 C 
ATOM     15  N   UNL d   1      38.510  -7.051  -7.309  0.00  0.00    -0.126 NA
BRANCH  15  16
ATOM     16  O   UNL d   1      39.792  -7.028  -7.862  0.00  0.00    -0.261 OA
ATOM     17  C   UNL d   1      39.661  -7.536  -9.202  0.00  0.00     0.240 C 
ENDBRANCH  15  16
BRANCH  14  18
ATOM     18  C   UNL d   1      36.892  -7.934  -5.898  0.00  0.00     0.102 A 
ATOM     19  N   UNL d   1      36.369  -8.948  -5.106  0.00  0.00    -0.222 NA
ATOM     20  C   UNL d   1      35.260  -8.553  -4.534  0.00  0.00     0.164 A 
ATOM     21  S   UNL d   1      34.715  -6.988  -4.973  0.00  0.00    -0.062 SA
ATOM     22  C   UNL d   1      36.091  -6.804  -5.973  0.00  0.00     0.087 A 
BRANCH  20  23
ATOM     23  N   UNL d   1      34.583  -9.310  -3.660  0.00  0.00    -0.378 N 
ATOM     24  H   UNL d   1      34.015 -10.073  -4.003  0.00  0.00     0.158 HD
ATOM     25  H   UNL d   1      35.026  -9.464  -2.761  0.00  0.00     0.158 HD
ENDBRANCH  20  23
ENDBRANCH  14  18
ENDBRANCH  11  14
ENDBRANCH   5  10
BRANCH   7  26
ATOM     26  C   UNL d   1      40.481  -5.844  -0.261  0.00  0.00     0.194 C 
ATOM     27  OXT UNL d   1      39.979  -4.779   0.075  0.00  0.00    -0.645 OA
BRANCH  26  28
ATOM     28  O   UNL d   1      41.814  -5.995  -0.324  0.00  0.00    -0.772 OA
ATOM     29  H   UNL d   1      42.309  -5.716   0.475  0.00  0.00     0.167 HD
ENDBRANCH  26  28
ENDBRANCH   7  26
BRANCH   8  30
ATOM     30  C   UNL d   1      38.818  -7.549   1.547  0.00  0.00     0.216 C 
BRANCH  30  31
ATOM     31  O   UNL d   1      37.536  -7.044   1.954  0.00  0.00    -0.317 OA
BRANCH  31  32
ATOM     32  C   UNL d   1      37.002  -7.592   3.077  0.00  0.00     0.255 C 
ATOM     33  O   UNL d   1      36.266  -7.021   3.866  0.00  0.00    -0.266 OA
ATOM     34  C   UNL d   1      37.435  -9.021   3.205  0.00  0.00     0.126 C 
ENDBRANCH  31  32
ENDBRANCH  30  31
ENDBRANCH   8  30
TORSDOF 10
ENDMDL
MODEL 2
REMARK VINA RESULT:      -7.4      1.993      2.513
REMARK  10 active torsions:
REMARK  status: ('A' for Active; 'I' for Inactive)
REMARK    1  A    between atoms: O_4  and  C_21 
REMARK    2  A    between atoms: O_4  and  C_26 
REMARK    3  A    between atoms: O_5  and  C_22 
REMARK    4  A    between atoms: O_8  and  N_12 
REMARK    5  A    between atoms: CA_16  and  N_11 
REMARK       I    between atoms: N_11  and  C_23 
REMARK    6  A    between atoms: N_14  and  C_29 
REMARK    7  A    between atoms: CA_18  and  C_22 
REMARK    8  A    between atoms: C_19  and  C_21 
REMARK    9  A    between atoms: C_23  and  C_24 
REMARK   10  A    between atoms: C_24  and  C_25 
ROOT
ATOM      1  S   UNL d   1      37.451  -8.467  -2.875  0.00  0.00    -0.136 SA
ATOM      2  O   UNL d   1      41.547  -8.640  -2.280  0.00  0.00    -0.271 OA
ATOM      3  N   UNL d   1      39.753  -7.179  -2.525  0.00  0.00    -0.293 N 
ATOM      4  C   UNL d   1      38.790  -7.462  -3.588  0.00  0.00     0.187 C 
ATOM      5  CA  UNL d   1      39.972  -8.216  -4.300  0.00  0.00     0.211 C 
ATOM      6  C   UNL d   1      40.620  -8.169  -2.882  0.00  0.00     0.251 C 
ATOM      7  CA  UNL d   1      39.413  -6.684  -1.284  0.00  0.00     0.117 C 
ATOM      8  C   UNL d   1      38.113  -6.650  -0.867  0.00  0.00    -0.013 C 
ATOM      9  C   UNL d   1      36.956  -7.171  -1.691  0.00  0.00     0.115 C 
ENDROOT
BRANCH   5  10
ATOM     10  N   UNL d   1      39.643  -9.474  -5.061  0.00  0.00    -0.339 N 
ATOM     11  C   UNL d   1      39.666  -9.373  -6.451  0.00  0.00     0.275 C 
ATOM     12  O   UNL d   1      39.396 -10.355  -7.145  0.00  0.00    -0.266 OA
ATOM     13  H   UNL d   1      39.604 -10.394  -4.635  0.00  0.00     0.163 HD
BRANCH  11  14
ATOM     14  C   UNL d   1      40.045  -8.074  -7.169  0.00  0.00     0.180 C 
ATOM     15  N   UNL d   1      41.203  -7.491  -7.259  0.00  0.00    -0.126 NA
BRANCH  15  16
ATOM     16  O   UNL d   1      42.284  -8.114  -6.633  0.00  0.00    -0.261 OA
ATOM     17  C   UNL d   1      43.156  -8.561  -7.688  0.00  0.00     0.240 C 
ENDBRANCH  15  16
BRANCH  14  18
ATOM     18  C   UNL d   1      38.942  -7.292  -7.746  0.00  0.00     0.102 A 
ATOM     19  N   UNL d   1      37.994  -6.663  -6.949  0.00  0.00    -0.222 NA
ATOM     20  C   UNL d   1      37.209  -5.912  -7.680  0.00  0.00     0.164 A 
ATOM     21  S   UNL d   1      37.484  -5.978  -9.371  0.00  0.00    -0.062 SA
ATOM     22  C   UNL d   1      38.782  -7.061  -9.105  0.00  0.00     0.087 A 
BRANCH  20  23
ATOM     23  N   UNL d   1      36.250  -5.137  -7.156  0.00  0.00    -0.378 N 
ATOM     24  H   UNL d   1      35.740  -4.507  -7.761  0.00  0.00     0.158 HD
ATOM     25  H   UNL d   1      35.719  -5.535  -6.390  0.00  0.00     0.158 HD
ENDBRANCH  20  23
ENDBRANCH  14  18
ENDBRANCH  11  14
ENDBRANCH   5  10
BRANCH   7  26
ATOM     26  C   UNL d   1      40.511  -6.049  -0.446  0.00  0.00     0.194 C 
ATOM     27  OXT UNL d   1      40.652  -4.838  -0.330  0.00  0.00    -0.645 OA
BRANCH  26  28
ATOM     28  O   UNL d   1      41.423  -6.905   0.043  0.00  0.00    -0.772 OA
ATOM     29  H   UNL d   1      42.104  -6.508   0.626  0.00  0.00     0.167 HD
ENDBRANCH  26  28
ENDBRANCH   7  26
BRANCH   8  30
ATOM     30  C   UNL d   1      37.677  -6.152   0.503  0.00  0.00     0.216 C 
BRANCH  30  31
ATOM     31  O   UNL d   1      37.201  -7.246   1.303  0.00  0.00    -0.317 OA
BRANCH  31  32
ATOM     32  C   UNL d   1      38.076  -7.755   2.209  0.00  0.00     0.255 C 
ATOM     33  O   UNL d   1      39.247  -7.429   2.329  0.00  0.00    -0.266 OA
ATOM     34  C   UNL d   1      37.390  -8.775   3.066  0.00  0.00     0.126 C 
ENDBRANCH  31  32
ENDBRANCH  30  31
ENDBRANCH   8  30
TORSDOF 10
ENDMDL
MODEL 3
REMARK VINA RESULT:      -7.0      2.825      8.325
REMARK  10 active torsions:
REMARK  status: ('A' for Active; 'I' for Inactive)
REMARK    1  A    between atoms: O_4  and  C_21 
REMARK    2  A    between atoms: O_4  and  C_26 
REMARK    3  A    between atoms: O_5  and  C_22 
REMARK    4  A    between atoms: O_8  and  N_12 
REMARK    5  A    between atoms: CA_16  and  N_11 
REMARK       I    between atoms: N_11  and  C_23 
REMARK    6  A    between atoms: N_14  and  C_29 
REMARK    7  A    between atoms: CA_18  and  C_22 
REMARK    8  A    between atoms: C_19  and  C_21 
REMARK    9  A    between atoms: C_23  and  C_24 
REMARK   10  A    between atoms: C_24  and  C_25 
ROOT
ATOM      1  S   UNL d   1      39.246  -9.204  -5.263  0.00  0.00    -0.136 SA
ATOM      2  O   UNL d   1      35.426  -7.886  -4.350  0.00  0.00    -0.271 OA
ATOM      3  N   UNL d   1      37.484  -7.211  -5.202  0.00  0.00    -0.293 N 
ATOM      4  C   UNL d   1      38.685  -7.652  -4.496  0.00  0.00     0.187 C 
ATOM      5  CA  UNL d   1      37.763  -7.753  -3.227  0.00  0.00     0.211 C 
ATOM      6  C   UNL d   1      36.613  -7.710  -4.280  0.00  0.00     0.251 C 
ATOM      7  CA  UNL d   1      37.383  -7.114  -6.574  0.00  0.00     0.117 C 
ATOM      8  C   UNL d   1      38.331  -7.658  -7.394  0.00  0.00    -0.013 C 
ATOM      9  C   UNL d   1      39.530  -8.431  -6.889  0.00  0.00     0.115 C 
ENDROOT
BRANCH   5  10
ATOM     10  N   UNL d   1      38.016  -8.885  -2.265  0.00  0.00    -0.339 N 
ATOM     11  C   UNL d   1      38.985  -8.656  -1.290  0.00  0.00     0.275 C 
ATOM     12  O   UNL d   1      39.259  -9.537  -0.474  0.00  0.00    -0.266 OA
ATOM     13  H   UNL d   1      37.406  -9.690  -2.173  0.00  0.00     0.163 HD
BRANCH  11  14
ATOM     14  C   UNL d   1      39.722  -7.318  -1.171  0.00  0.00     0.180 C 
ATOM     15  N   UNL d   1      39.238  -6.124  -0.998  0.00  0.00    -0.126 NA
BRANCH  15  16
ATOM     16  O   UNL d   1      37.851  -6.004  -0.893  0.00  0.00    -0.261 OA
ATOM     17  C   UNL d   1      37.555  -6.000   0.516  0.00  0.00     0.240 C 
ENDBRANCH  15  16
BRANCH  14  18
ATOM     18  C   UNL d   1      41.175  -7.341  -1.397  0.00  0.00     0.102 A 
ATOM     19  N   UNL d   1      42.052  -6.620  -0.597  0.00  0.00    -0.222 NA
ATOM     20  C   UNL d   1      43.291  -6.918  -0.897  0.00  0.00     0.164 A 
ATOM     21  S   UNL d   1      43.497  -7.998  -2.212  0.00  0.00    -0.062 SA
ATOM     22  C   UNL d   1      41.797  -8.114  -2.366  0.00  0.00     0.087 A 
BRANCH  20  23
ATOM     23  N   UNL d   1      44.341  -6.419  -0.230  0.00  0.00    -0.378 N 
ATOM     24  H   UNL d   1      45.235  -6.349  -0.698  0.00  0.00     0.158 HD
ATOM     25  H   UNL d   1      44.140  -5.688   0.442  0.00  0.00     0.158 HD
ENDBRANCH  20  23
ENDBRANCH  14  18
ENDBRANCH  11  14
ENDBRANCH   5  10
BRANCH   7  26
ATOM     26  C   UNL d   1      36.262  -6.262  -7.146  0.00  0.00     0.194 C 
ATOM     27  OXT UNL d   1      35.353  -6.720  -7.828  0.00  0.00    -0.645 OA
BRANCH  26  28
ATOM     28  O   UNL d   1      36.411  -4.938  -6.985  0.00  0.00    -0.772 OA
ATOM     29  H   UNL d   1      37.280  -4.574  -7.258  0.00  0.00     0.167 HD
ENDBRANCH  26  28
ENDBRANCH   7  26
BRANCH   8  30
ATOM     30  C   UNL d   1      38.259  -7.616  -8.913  0.00  0.00     0.216 C 
BRANCH  30  31
ATOM     31  O   UNL d   1      38.834  -6.396  -9.407  0.00  0.00    -0.317 OA
BRANCH  31  32
ATOM     32  C   UNL d   1      38.492  -6.037 -10.672  0.00  0.00     0.255 C 
ATOM     33  O   UNL d   1      39.234  -5.512 -11.487  0.00  0.00    -0.266 OA
ATOM     34  C   UNL d   1      37.062  -6.397 -10.937  0.00  0.00     0.126 C 
ENDBRANCH  31  32
ENDBRANCH  30  31
ENDBRANCH   8  30
TORSDOF 10
ENDMDL
MODEL 4
REMARK VINA RESULT:      -6.9      3.079      8.024
REMARK  10 active torsions:
REMARK  status: ('A' for Active; 'I' for Inactive)
REMARK    1  A    between atoms: O_4  and  C_21 
REMARK    2  A    between atoms: O_4  and  C_26 
REMARK    3  A    between atoms: O_5  and  C_22 
REMARK    4  A    between atoms: O_8  and  N_12 
REMARK    5  A    between atoms: CA_16  and  N_11 
REMARK       I    between atoms: N_11  and  C_23 
REMARK    6  A    between atoms: N_14  and  C_29 
REMARK    7  A    between atoms: CA_18  and  C_22 
REMARK    8  A    between atoms: C_19  and  C_21 
REMARK    9  A    between atoms: C_23  and  C_24 
REMARK   10  A    between atoms: C_24  and  C_25 
ROOT
ATOM      1  S   UNL d   1      39.950  -8.930  -6.732  0.00  0.00    -0.136 SA
ATOM      2  O   UNL d   1      36.200  -8.628  -4.997  0.00  0.00    -0.271 OA
ATOM      3  N   UNL d   1      37.945  -7.386  -5.909  0.00  0.00    -0.293 N 
ATOM      4  C   UNL d   1      39.306  -7.742  -5.513  0.00  0.00     0.187 C 
ATOM      5  CA  UNL d   1      38.652  -8.317  -4.204  0.00  0.00     0.211 C 
ATOM      6  C   UNL d   1      37.340  -8.249  -5.043  0.00  0.00     0.251 C 
ATOM      7  CA  UNL d   1      37.586  -6.988  -7.179  0.00  0.00     0.117 C 
ATOM      8  C   UNL d   1      38.443  -7.128  -8.234  0.00  0.00    -0.013 C 
ATOM      9  C   UNL d   1      39.817  -7.753  -8.119  0.00  0.00     0.115 C 
ENDROOT
BRANCH   5  10
ATOM     10  N   UNL d   1      39.243  -9.574  -3.620  0.00  0.00    -0.339 N 
ATOM     11  C   UNL d   1      40.067  -9.405  -2.509  0.00  0.00     0.275 C 
ATOM     12  O   UNL d   1      40.599 -10.383  -1.981  0.00  0.00    -0.266 OA
ATOM     13  H   UNL d   1      38.927 -10.507  -3.861  0.00  0.00     0.163 HD
BRANCH  11  14
ATOM     14  C   UNL d   1      40.326  -8.029  -1.886  0.00  0.00     0.180 C 
ATOM     15  N   UNL d   1      41.334  -7.226  -2.054  0.00  0.00    -0.126 NA
BRANCH  15  16
ATOM     16  O   UNL d   1      42.342  -7.637  -2.929  0.00  0.00    -0.261 OA
ATOM     17  C   UNL d   1      43.462  -8.004  -2.104  0.00  0.00     0.240 C 
ENDBRANCH  15  16
BRANCH  14  18
ATOM     18  C   UNL d   1      39.375  -7.579  -0.859  0.00  0.00     0.102 A 
ATOM     19  N   UNL d   1      39.346  -8.143   0.410  0.00  0.00    -0.222 NA
ATOM     20  C   UNL d   1      38.526  -7.480   1.185  0.00  0.00     0.164 A 
ATOM     21  S   UNL d   1      37.662  -6.205   0.433  0.00  0.00    -0.062 SA
ATOM     22  C   UNL d   1      38.481  -6.533  -1.034  0.00  0.00     0.087 A 
BRANCH  20  23
ATOM     23  N   UNL d   1      38.361  -7.767   2.483  0.00  0.00    -0.378 N 
ATOM     24  H   UNL d   1      37.436  -7.991   2.826  0.00  0.00     0.158 HD
ATOM     25  H   UNL d   1      39.125  -8.253   2.937  0.00  0.00     0.158 HD
ENDBRANCH  20  23
ENDBRANCH  14  18
ENDBRANCH  11  14
ENDBRANCH   5  10
BRANCH   7  26
ATOM     26  C   UNL d   1      36.263  -6.258  -7.349  0.00  0.00     0.194 C 
ATOM     27  OXT UNL d   1      35.235  -6.810  -7.722  0.00  0.00    -0.645 OA
BRANCH  26  28
ATOM     28  O   UNL d   1      36.325  -4.924  -7.209  0.00  0.00    -0.772 OA
ATOM     29  H   UNL d   1      35.552  -4.509  -6.771  0.00  0.00     0.167 HD
ENDBRANCH  26  28
ENDBRANCH   7  26
BRANCH   8  30
ATOM     30  C   UNL d   1      38.094  -6.743  -9.664  0.00  0.00     0.216 C 
BRANCH  30  31
ATOM     31  O   UNL d   1      38.241  -5.326  -9.848  0.00  0.00    -0.317 OA
BRANCH  31  32
ATOM     32  C   UNL d   1      38.600  -4.914 -11.092  0.00  0.00     0.255 C 
ATOM     33  O   UNL d   1      39.054  -3.817 -11.375  0.00  0.00    -0.266 OA
ATOM     34  C   UNL d   1      38.373  -6.017 -12.081  0.00  0.00     0.126 C 
ENDBRANCH  31  32
ENDBRANCH  30  31
ENDBRANCH   8  30
TORSDOF 10
ENDMDL
MODEL 5
REMARK VINA RESULT:      -6.8     11.989     17.290
REMARK  10 active torsions:
REMARK  status: ('A' for Active; 'I' for Inactive)
REMARK    1  A    between atoms: O_4  and  C_21 
REMARK    2  A    between atoms: O_4  and  C_26 
REMARK    3  A    between atoms: O_5  and  C_22 
REMARK    4  A    between atoms: O_8  and  N_12 
REMARK    5  A    between atoms: CA_16  and  N_11 
REMARK       I    between atoms: N_11  and  C_23 
REMARK    6  A    between atoms: N_14  and  C_29 
REMARK    7  A    between atoms: CA_18  and  C_22 
REMARK    8  A    between atoms: C_19  and  C_21 
REMARK    9  A    between atoms: C_23  and  C_24 
REMARK   10  A    between atoms: C_24  and  C_25 
ROOT
ATOM      1  S   UNL d   1      36.161 -11.881  12.262  0.00  0.00    -0.136 SA
ATOM      2  O   UNL d   1      37.579  -8.190  13.501  0.00  0.00    -0.271 OA
ATOM      3  N   UNL d   1      37.821  -9.838  11.875  0.00  0.00    -0.293 N 
ATOM      4  C   UNL d   1      37.859 -11.229  12.322  0.00  0.00     0.187 C 
ATOM      5  CA  UNL d   1      38.376 -10.655  13.691  0.00  0.00     0.211 C 
ATOM      6  C   UNL d   1      37.822  -9.308  13.131  0.00  0.00     0.251 C 
ATOM      7  CA  UNL d   1      37.201  -9.411  10.719  0.00  0.00     0.117 C 
ATOM      8  C   UNL d   1      36.360 -10.232  10.022  0.00  0.00    -0.013 C 
ATOM      9  C   UNL d   1      36.010 -11.638  10.461  0.00  0.00     0.115 C 
ENDROOT
BRANCH   5  10
ATOM     10  N   UNL d   1      37.906 -11.327  14.954  0.00  0.00    -0.339 N 
ATOM     11  C   UNL d   1      38.638 -12.439  15.365  0.00  0.00     0.275 C 
ATOM     12  O   UNL d   1      38.308 -13.052  16.383  0.00  0.00    -0.266 OA
ATOM     13  H   UNL d   1      37.239 -10.912  15.597  0.00  0.00     0.163 HD
BRANCH  11  14
ATOM     14  C   UNL d   1      39.875 -12.929  14.605  0.00  0.00     0.180 C 
ATOM     15  N   UNL d   1      39.956 -13.780  13.627  0.00  0.00    -0.126 NA
BRANCH  15  16
ATOM     16  O   UNL d   1      38.765 -14.344  13.167  0.00  0.00    -0.261 OA
ATOM     17  C   UNL d   1      38.435 -15.394  14.095  0.00  0.00     0.240 C 
ENDBRANCH  15  16
BRANCH  14  18
ATOM     18  C   UNL d   1      41.181 -12.479  15.110  0.00  0.00     0.102 A 
ATOM     19  N   UNL d   1      41.476 -12.464  16.467  0.00  0.00    -0.222 NA
ATOM     20  C   UNL d   1      42.738 -12.170  16.656  0.00  0.00     0.164 A 
ATOM     21  S   UNL d   1      43.632 -11.798  15.241  0.00  0.00    -0.062 SA
ATOM     22  C   UNL d   1      42.237 -12.096  14.296  0.00  0.00     0.087 A 
BRANCH  20  23
ATOM     23  N   UNL d   1      43.308 -12.157  17.868  0.00  0.00    -0.378 N 
ATOM     24  H   UNL d   1      43.644 -13.025  18.265  0.00  0.00     0.158 HD
ATOM     25  H   UNL d   1      43.845 -11.331  18.103  0.00  0.00     0.158 HD
ENDBRANCH  20  23
ENDBRANCH  14  18
ENDBRANCH  11  14
ENDBRANCH   5  10
BRANCH   7  26
ATOM     26  C   UNL d   1      37.587  -8.049  10.165  0.00  0.00     0.194 C 
ATOM     27  OXT UNL d   1      38.599  -7.857   9.502  0.00  0.00    -0.645 OA
BRANCH  26  28
ATOM     28  O   UNL d   1      36.823  -7.027  10.579  0.00  0.00    -0.772 OA
ATOM     29  H   UNL d   1      37.291  -6.323  11.077  0.00  0.00     0.167 HD
ENDBRANCH  26  28
ENDBRANCH   7  26
BRANCH   8  30
ATOM     30  C   UNL d   1      35.618  -9.810   8.763  0.00  0.00     0.216 C 
BRANCH  30  31
ATOM     31  O   UNL d   1      36.542  -9.619   7.680  0.00  0.00    -0.317 OA
BRANCH  31  32
ATOM     32  C   UNL d   1      36.005  -9.247   6.489  0.00  0.00     0.255 C 
ATOM     33  O   UNL d   1      35.109  -9.831   5.899  0.00  0.00    -0.266 OA
ATOM     34  C   UNL d   1      36.662  -7.993   6.000  0.00  0.00     0.126 C 
ENDBRANCH  31  32
ENDBRANCH  30  31
ENDBRANCH   8  30
TORSDOF 10
ENDMDL
MODEL 6
REMARK VINA RESULT:      -6.8      3.550      5.423
REMARK  10 active torsions:
REMARK  status: ('A' for Active; 'I' for Inactive)
REMARK    1  A    between atoms: O_4  and  C_21 
REMARK    2  A    between atoms: O_4  and  C_26 
REMARK    3  A    between atoms: O_5  and  C_22 
REMARK    4  A    between atoms: O_8  and  N_12 
REMARK    5  A    between atoms: CA_16  and  N_11 
REMARK       I    between atoms: N_11  and  C_23 
REMARK    6  A    between atoms: N_14  and  C_29 
REMARK    7  A    between atoms: CA_18  and  C_22 
REMARK    8  A    between atoms: C_19  and  C_21 
REMARK    9  A    between atoms: C_23  and  C_24 
REMARK   10  A    between atoms: C_24  and  C_25 
ROOT
ATOM      1  S   UNL d   1      39.607  -6.940  -5.445  0.00  0.00    -0.136 SA
ATOM      2  O   UNL d   1      35.965  -6.203  -7.277  0.00  0.00    -0.271 OA
ATOM      3  N   UNL d   1      37.125  -7.742  -5.972  0.00  0.00    -0.293 N 
ATOM      4  C   UNL d   1      38.499  -8.057  -6.359  0.00  0.00     0.187 C 
ATOM      5  CA  UNL d   1      38.065  -7.633  -7.810  0.00  0.00     0.211 C 
ATOM      6  C   UNL d   1      36.867  -6.968  -7.065  0.00  0.00     0.251 C 
ATOM      7  CA  UNL d   1      36.694  -7.627  -4.667  0.00  0.00     0.117 C 
ATOM      8  C   UNL d   1      37.583  -7.562  -3.631  0.00  0.00    -0.013 C 
ATOM      9  C   UNL d   1      39.085  -7.572  -3.815  0.00  0.00     0.115 C 
ENDROOT
BRANCH   5  10
ATOM     10  N   UNL d   1      39.074  -6.901  -8.656  0.00  0.00    -0.339 N 
ATOM     11  C   UNL d   1      39.178  -7.316  -9.983  0.00  0.00     0.275 C 
ATOM     12  O   UNL d   1      39.989  -6.775 -10.736  0.00  0.00    -0.266 OA
ATOM     13  H   UNL d   1      39.516  -6.031  -8.377  0.00  0.00     0.163 HD
BRANCH  11  14
ATOM     14  C   UNL d   1      38.291  -8.422 -10.564  0.00  0.00     0.180 C 
ATOM     15  N   UNL d   1      38.526  -9.695 -10.669  0.00  0.00    -0.126 NA
BRANCH  15  16
ATOM     16  O   UNL d   1      39.749 -10.163 -10.185  0.00  0.00    -0.261 OA
ATOM     17  C   UNL d   1      39.447 -10.924  -9.001  0.00  0.00     0.240 C 
ENDBRANCH  15  16
BRANCH  14  18
ATOM     18  C   UNL d   1      37.039  -7.995 -11.208  0.00  0.00     0.102 A 
ATOM     19  N   UNL d   1      35.955  -8.852 -11.342  0.00  0.00    -0.222 NA
ATOM     20  C   UNL d   1      34.917  -8.205 -11.807  0.00  0.00     0.164 A 
ATOM     21  S   UNL d   1      35.187  -6.560 -12.207  0.00  0.00    -0.062 SA
ATOM     22  C   UNL d   1      36.806  -6.710 -11.675  0.00  0.00     0.087 A 
BRANCH  20  23
ATOM     23  N   UNL d   1      33.715  -8.776 -11.966  0.00  0.00    -0.378 N 
ATOM     24  H   UNL d   1      32.889  -8.192 -11.981  0.00  0.00     0.158 HD
ATOM     25  H   UNL d   1      33.682  -9.596 -12.559  0.00  0.00     0.158 HD
ENDBRANCH  20  23
ENDBRANCH  14  18
ENDBRANCH  11  14
ENDBRANCH   5  10
BRANCH   7  26
ATOM     26  C   UNL d   1      35.200  -7.717  -4.401  0.00  0.00     0.194 C 
ATOM     27  OXT UNL d   1      34.611  -8.777  -4.230  0.00  0.00    -0.645 OA
BRANCH  26  28
ATOM     28  O   UNL d   1      34.530  -6.559  -4.516  0.00  0.00    -0.772 OA
ATOM     29  H   UNL d   1      34.184  -6.186  -3.677  0.00  0.00     0.167 HD
ENDBRANCH  26  28
ENDBRANCH   7  26
BRANCH   8  30
ATOM     30  C   UNL d   1      37.172  -7.399  -2.175  0.00  0.00     0.216 C 
BRANCH  30  31
ATOM     31  O   UNL d   1      37.569  -6.107  -1.688  0.00  0.00    -0.317 OA
BRANCH  31  32
ATOM     32  C   UNL d   1      37.849  -6.024  -0.361  0.00  0.00     0.255 C 
ATOM     33  O   UNL d   1      37.028  -6.055   0.543  0.00  0.00    -0.266 OA
ATOM     34  C   UNL d   1      39.329  -5.905  -0.157  0.00  0.00     0.126 C 
ENDBRANCH  31  32
ENDBRANCH  30  31
ENDBRANCH   8  30
TORSDOF 10
ENDMDL
MODEL 7
REMARK VINA RESULT:      -6.7      2.533      4.055
REMARK  10 active torsions:
REMARK  status: ('A' for Active; 'I' for Inactive)
REMARK    1  A    between atoms: O_4  and  C_21 
REMARK    2  A    between atoms: O_4  and  C_26 
REMARK    3  A    between atoms: O_5  and  C_22 
REMARK    4  A    between atoms: O_8  and  N_12 
REMARK    5  A    between atoms: CA_16  and  N_11 
REMARK       I    between atoms: N_11  and  C_23 
REMARK    6  A    between atoms: N_14  and  C_29 
REMARK    7  A    between atoms: CA_18  and  C_22 
REMARK    8  A    between atoms: C_19  and  C_21 
REMARK    9  A    between atoms: C_23  and  C_24 
REMARK   10  A    between atoms: C_24  and  C_25 
ROOT
ATOM      1  S   UNL d   1      37.683  -8.854  -2.526  0.00  0.00    -0.136 SA
ATOM      2  O   UNL d   1      41.804  -8.834  -2.954  0.00  0.00    -0.271 OA
ATOM      3  N   UNL d   1      39.958  -7.474  -2.553  0.00  0.00    -0.293 N 
ATOM      4  C   UNL d   1      38.775  -7.678  -3.386  0.00  0.00     0.187 C 
ATOM      5  CA  UNL d   1      39.770  -8.252  -4.459  0.00  0.00     0.211 C 
ATOM      6  C   UNL d   1      40.743  -8.349  -3.244  0.00  0.00     0.251 C 
ATOM      7  CA  UNL d   1      39.917  -7.171  -1.208  0.00  0.00     0.117 C 
ATOM      8  C   UNL d   1      38.758  -7.277  -0.494  0.00  0.00    -0.013 C 
ATOM      9  C   UNL d   1      37.451  -7.761  -1.085  0.00  0.00     0.115 C 
ENDROOT
BRANCH   5  10
ATOM     10  N   UNL d   1      39.305  -9.418  -5.292  0.00  0.00    -0.339 N 
ATOM     11  C   UNL d   1      39.602  -9.355  -6.653  0.00  0.00     0.275 C 
ATOM     12  O   UNL d   1      39.244 -10.264  -7.404  0.00  0.00    -0.266 OA
ATOM     13  H   UNL d   1      38.980 -10.295  -4.900  0.00  0.00     0.163 HD
BRANCH  11  14
ATOM     14  C   UNL d   1      40.391  -8.192  -7.264  0.00  0.00     0.180 C 
ATOM     15  N   UNL d   1      39.953  -7.107  -7.828  0.00  0.00    -0.126 NA
BRANCH  15  16
ATOM     16  O   UNL d   1      38.570  -6.935  -7.899  0.00  0.00    -0.261 OA
ATOM     17  C   UNL d   1      38.258  -6.764  -9.294  0.00  0.00     0.240 C 
ENDBRANCH  15  16
BRANCH  14  18
ATOM     18  C   UNL d   1      41.851  -8.354  -7.342  0.00  0.00     0.102 A 
ATOM     19  N   UNL d   1      42.649  -7.468  -8.055  0.00  0.00    -0.222 NA
ATOM     20  C   UNL d   1      43.915  -7.732  -7.854  0.00  0.00     0.164 A 
ATOM     21  S   UNL d   1      44.240  -9.108  -6.884  0.00  0.00    -0.062 SA
ATOM     22  C   UNL d   1      42.558  -9.345  -6.678  0.00  0.00     0.087 A 
BRANCH  20  23
ATOM     23  N   UNL d   1      44.903  -6.986  -8.365  0.00  0.00    -0.378 N 
ATOM     24  H   UNL d   1      45.758  -7.437  -8.664  0.00  0.00     0.158 HD
ATOM     25  H   UNL d   1      44.622  -6.178  -8.907  0.00  0.00     0.158 HD
ENDBRANCH  20  23
ENDBRANCH  14  18
ENDBRANCH  11  14
ENDBRANCH   5  10
BRANCH   7  26
ATOM     26  C   UNL d   1      41.166  -6.581  -0.574  0.00  0.00     0.194 C 
ATOM     27  OXT UNL d   1      42.096  -7.263  -0.162  0.00  0.00    -0.645 OA
BRANCH  26  28
ATOM     28  O   UNL d   1      41.122  -5.257  -0.350  0.00  0.00    -0.772 OA
ATOM     29  H   UNL d   1      41.958  -4.773  -0.518  0.00  0.00     0.167 HD
ENDBRANCH  26  28
ENDBRANCH   7  26
BRANCH   8  30
ATOM     30  C   UNL d   1      38.655  -6.994   0.998  0.00  0.00     0.216 C 
BRANCH  30  31
ATOM     31  O   UNL d   1      38.106  -8.130   1.684  0.00  0.00    -0.317 OA
BRANCH  31  32
ATOM     32  C   UNL d   1      38.208  -8.122   3.039  0.00  0.00     0.255 C 
ATOM     33  O   UNL d   1      39.196  -7.789   3.676  0.00  0.00    -0.266 OA
ATOM     34  C   UNL d   1      36.916  -8.568   3.653  0.00  0.00     0.126 C 
ENDBRANCH  31  32
ENDBRANCH  30  31
ENDBRANCH   8  30
TORSDOF 10
ENDMDL
MODEL 8
REMARK VINA RESULT:      -6.4     12.870     18.153
REMARK  10 active torsions:
REMARK  status: ('A' for Active; 'I' for Inactive)
REMARK    1  A    between atoms: O_4  and  C_21 
REMARK    2  A    between atoms: O_4  and  C_26 
REMARK    3  A    between atoms: O_5  and  C_22 
REMARK    4  A    between atoms: O_8  and  N_12 
REMARK    5  A    between atoms: CA_16  and  N_11 
REMARK       I    between atoms: N_11  and  C_23 
REMARK    6  A    between atoms: N_14  and  C_29 
REMARK    7  A    between atoms: CA_18  and  C_22 
REMARK    8  A    between atoms: C_19  and  C_21 
REMARK    9  A    between atoms: C_23  and  C_24 
REMARK   10  A    between atoms: C_24  and  C_25 
ROOT
ATOM      1  S   UNL d   1      36.576 -12.878  11.399  0.00  0.00    -0.136 SA
ATOM      2  O   UNL d   1      37.293 -11.065  15.055  0.00  0.00    -0.271 OA
ATOM      3  N   UNL d   1      38.051 -11.213  12.859  0.00  0.00    -0.293 N 
ATOM      4  C   UNL d   1      38.142 -12.544  12.263  0.00  0.00     0.187 C 
ATOM      5  CA  UNL d   1      38.291 -13.068  13.738  0.00  0.00     0.211 C 
ATOM      6  C   UNL d   1      37.727 -11.661  14.105  0.00  0.00     0.251 C 
ATOM      7  CA  UNL d   1      37.649 -10.084  12.176  0.00  0.00     0.117 C 
ATOM      8  C   UNL d   1      37.069 -10.172  10.943  0.00  0.00    -0.013 C 
ATOM      9  C   UNL d   1      36.786 -11.483  10.242  0.00  0.00     0.115 C 
ENDROOT
BRANCH   5  10
ATOM     10  N   UNL d   1      37.638 -14.381  14.084  0.00  0.00    -0.339 N 
ATOM     11  C   UNL d   1      38.256 -15.128  15.086  0.00  0.00     0.275 C 
ATOM     12  O   UNL d   1      37.790 -16.219  15.418  0.00  0.00    -0.266 OA
ATOM     13  H   UNL d   1      36.705 -14.641  13.781  0.00  0.00     0.163 HD
BRANCH  11  14
ATOM     14  C   UNL d   1      39.502 -14.629  15.825  0.00  0.00     0.180 C 
ATOM     15  N   UNL d   1      39.593 -13.778  16.802  0.00  0.00    -0.126 NA
BRANCH  15  16
ATOM     16  O   UNL d   1      38.405 -13.224  17.283  0.00  0.00    -0.261 OA
ATOM     17  C   UNL d   1      38.628 -12.945  18.677  0.00  0.00     0.240 C 
ENDBRANCH  15  16
BRANCH  14  18
ATOM     18  C   UNL d   1      40.803 -15.067  15.297  0.00  0.00     0.102 A 
ATOM     19  N   UNL d   1      40.915 -16.145  14.428  0.00  0.00    -0.222 NA
ATOM     20  C   UNL d   1      42.142 -16.246  13.984  0.00  0.00     0.164 A 
ATOM     21  S   UNL d   1      43.264 -15.129  14.642  0.00  0.00    -0.062 SA
ATOM     22  C   UNL d   1      42.003 -14.424  15.560  0.00  0.00     0.087 A 
BRANCH  20  23
ATOM     23  N   UNL d   1      42.514 -17.158  13.075  0.00  0.00    -0.378 N 
ATOM     24  H   UNL d   1      43.019 -17.980  13.378  0.00  0.00     0.158 HD
ATOM     25  H   UNL d   1      41.884 -17.294  12.293  0.00  0.00     0.158 HD
ENDBRANCH  20  23
ENDBRANCH  14  18
ENDBRANCH  11  14
ENDBRANCH   5  10
BRANCH   7  26
ATOM     26  C   UNL d   1      37.996  -8.730  12.774  0.00  0.00     0.194 C 
ATOM     27  OXT UNL d   1      37.251  -8.118  13.528  0.00  0.00    -0.645 OA
BRANCH  26  28
ATOM     28  O   UNL d   1      39.119  -8.168  12.298  0.00  0.00    -0.772 OA
ATOM     29  H   UNL d   1      39.635  -8.719  11.672  0.00  0.00     0.167 HD
ENDBRANCH  26  28
ENDBRANCH   7  26
BRANCH   8  30
ATOM     30  C   UNL d   1      36.570  -8.969  10.156  0.00  0.00     0.216 C 
BRANCH  30  31
ATOM     31  O   UNL d   1      37.311  -8.832   8.932  0.00  0.00    -0.317 OA
BRANCH  31  32
ATOM     32  C   UNL d   1      37.991  -7.667   8.767  0.00  0.00     0.255 C 
ATOM     33  O   UNL d   1      38.511  -7.015   9.658  0.00  0.00    -0.266 OA
ATOM     34  C   UNL d   1      38.029  -7.298   7.315  0.00  0.00     0.126 C 
ENDBRANCH  31  32
ENDBRANCH  30  31
ENDBRANCH   8  30
TORSDOF 10
ENDMDL
MODEL 9
REMARK VINA RESULT:      -6.3      2.936      4.572
REMARK  10 active torsions:
REMARK  status: ('A' for Active; 'I' for Inactive)
REMARK    1  A    between atoms: O_4  and  C_21 
REMARK    2  A    between atoms: O_4  and  C_26 
REMARK    3  A    between atoms: O_5  and  C_22 
REMARK    4  A    between atoms: O_8  and  N_12 
REMARK    5  A    between atoms: CA_16  and  N_11 
REMARK       I    between atoms: N_11  and  C_23 
REMARK    6  A    between atoms: N_14  and  C_29 
REMARK    7  A    between atoms: CA_18  and  C_22 
REMARK    8  A    between atoms: C_19  and  C_21 
REMARK    9  A    between atoms: C_23  and  C_24 
REMARK   10  A    between atoms: C_24  and  C_25 
ROOT
ATOM      1  S   UNL d   1      38.006  -8.010  -3.011  0.00  0.00    -0.136 SA
ATOM      2  O   UNL d   1      41.720  -9.792  -2.573  0.00  0.00    -0.271 OA
ATOM      3  N   UNL d   1      40.648  -7.744  -2.842  0.00  0.00    -0.293 N 
ATOM      4  C   UNL d   1      39.586  -7.663  -3.844  0.00  0.00     0.187 C 
ATOM      5  CA  UNL d   1      40.320  -8.860  -4.551  0.00  0.00     0.211 C 
ATOM      6  C   UNL d   1      41.022  -9.014  -3.167  0.00  0.00     0.251 C 
ATOM      7  CA  UNL d   1      40.614  -7.099  -1.624  0.00  0.00     0.117 C 
ATOM      8  C   UNL d   1      39.465  -6.525  -1.158  0.00  0.00    -0.013 C 
ATOM      9  C   UNL d   1      38.146  -6.573  -1.898  0.00  0.00     0.115 C 
ENDROOT
BRANCH   5  10
ATOM     10  N   UNL d   1      39.468  -9.912  -5.212  0.00  0.00    -0.339 N 
ATOM     11  C   UNL d   1      40.143 -10.835  -6.009  0.00  0.00     0.275 C 
ATOM     12  O   UNL d   1      39.515 -11.720  -6.594  0.00  0.00    -0.266 OA
ATOM     13  H   UNL d   1      38.502 -10.093  -4.959  0.00  0.00     0.163 HD
BRANCH  11  14
ATOM     14  C   UNL d   1      41.666 -10.813  -6.172  0.00  0.00     0.180 C 
ATOM     15  N   UNL d   1      42.574 -11.467  -5.511  0.00  0.00    -0.126 NA
BRANCH  15  16
ATOM     16  O   UNL d   1      42.137 -12.331  -4.505  0.00  0.00    -0.261 OA
ATOM     17  C   UNL d   1      42.805 -13.585  -4.735  0.00  0.00     0.240 C 
ENDBRANCH  15  16
BRANCH  14  18
ATOM     18  C   UNL d   1      42.215  -9.836  -7.124  0.00  0.00     0.102 A 
ATOM     19  N   UNL d   1      41.659  -9.648  -8.383  0.00  0.00    -0.222 NA
ATOM     20  C   UNL d   1      42.222  -8.629  -8.982  0.00  0.00     0.164 A 
ATOM     21  S   UNL d   1      43.512  -7.889  -8.131  0.00  0.00    -0.062 SA
ATOM     22  C   UNL d   1      43.273  -8.985  -6.840  0.00  0.00     0.087 A 
BRANCH  20  23
ATOM     23  N   UNL d   1      41.827  -8.183 -10.182  0.00  0.00    -0.378 N 
ATOM     24  H   UNL d   1      42.458  -8.258 -10.969  0.00  0.00     0.158 HD
ATOM     25  H   UNL d   1      40.843  -8.286 -10.399  0.00  0.00     0.158 HD
ENDBRANCH  20  23
ENDBRANCH  14  18
ENDBRANCH  11  14
ENDBRANCH   5  10
BRANCH   7  26
ATOM     26  C   UNL d   1      41.926  -6.923  -0.876  0.00  0.00     0.194 C 
ATOM     27  OXT UNL d   1      42.306  -7.688   0.003  0.00  0.00    -0.645 OA
BRANCH  26  28
ATOM     28  O   UNL d   1      42.580  -5.780  -1.133  0.00  0.00    -0.772 OA
ATOM     29  H   UNL d   1      42.635  -5.147  -0.385  0.00  0.00     0.167 HD
ENDBRANCH  26  28
ENDBRANCH   7  26
BRANCH   8  30
ATOM     30  C   UNL d   1      39.354  -5.833   0.193  0.00  0.00     0.216 C 
BRANCH  30  31
ATOM     31  O   UNL d   1      39.213  -6.805   1.241  0.00  0.00    -0.317 OA
BRANCH  31  32
ATOM     32  C   UNL d   1      37.945  -7.072   1.649  0.00  0.00     0.255 C 
ATOM     33  O   UNL d   1      36.977  -6.346   1.483  0.00  0.00    -0.266 OA
ATOM     34  C   UNL d   1      37.895  -8.408   2.325  0.00  0.00     0.126 C 
ENDBRANCH  31  32
ENDBRANCH  30  31
ENDBRANCH   8  30
TORSDOF 10
ENDMDL
