@<TRIPOS>MOLECULE
5742673
 47 49 0 0 0
SMALL
GASTEIGER

@<TRIPOS>ATOM
      1 S           1.3653    0.9934    0.6570 S.3     1  UNL11      -0.1310
      2 S          -0.7522    0.7950   -3.5892 S.3     1  UNL11      -0.0604
      3 O          -2.4946   -0.3754    1.2857 O.2     1  UNL11      -0.2731
      4 O           1.1941   -4.1496    0.5039 O.3     1  UNL11      -0.4603
      5 O          -2.1830   -2.7978    0.0993 O.3     1  UNL11      -0.4763
      6 OXT        -0.3846   -4.0586   -0.3294 O.2     1  UNL11      -0.2437
      7 O          -1.9300    4.9865    0.2731 O.2     1  UNL11      -0.2683
      8 O          -4.1849    5.3277   -1.3125 O.2     1  UNL11      -0.3964
      9 O          -0.2525   -3.0561    1.9110 O.2     1  UNL11      -0.2512
     10 N          -0.6819   -0.4932   -0.1685 N.am    1  UNL11      -0.2489
     11 N          -1.3379    2.8003    0.4904 N.am    1  UNL11      -0.2963
     12 N          -3.6384    4.2877   -2.0658 N.2     1  UNL11      -0.0779
     13 N          -3.0853    1.7695   -3.1420 N.pl3   1  UNL11      -0.2233
     14 N          -3.0470    0.1099   -4.7711 N.pl3   1  UNL11      -0.3375
     15 C          -0.0085    0.7581   -0.5129 C.3     1  UNL11       0.1042
     16 CA         -1.3801    1.4532   -0.1831 C.3     1  UNL11       0.1286
     17 C          -1.6878    0.1019    0.5327 C.2     1  UNL11       0.2440
     18 CA         -0.0328   -1.6926    0.0311 C.2     1  UNL11       0.1252
     19 C           1.3264   -1.7495    0.1603 C.2     1  UNL11       0.0056
     20 C           2.2206   -0.5298    0.1342 C.3     1  UNL11       0.0220
     21 C           2.0967   -3.0364    0.4193 C.3     1  UNL11       0.1166
     22 C          -0.8577   -2.9684   -0.0359 C.2     1  UNL11       0.3515
     23 C          -1.9341    3.8506   -0.2046 C.2     1  UNL11       0.2684
     24 C          -2.6311    3.6461   -1.5540 C.2     1  UNL11       0.1897
     25 C          -2.1972    2.4897   -2.3531 C.3     1  UNL11       0.1067
     26 C           0.2430   -4.0824    1.4718 C.2     1  UNL11       0.3043
     27 C          -0.8823    2.0583   -2.4421 C.3     1  UNL11       0.0067
     28 C          -0.1309   -5.4623    1.9197 C.3     1  UNL11       0.0332
     29 C          -2.4412    0.8913   -3.8674 C.3     1  UNL11       0.1562
     30 C          -5.5817    5.3804   -1.6550 C.3     1  UNL11       0.1072
     31 H           0.2833    0.8194   -1.5682 H       1  UNL11       0.0644
     32 HA         -2.0487    1.5281   -1.0580 H       1  UNL11       0.0622
     33 H           2.6157   -0.3955   -0.8812 H       1  UNL11       0.0424
     34 H           3.0833   -0.6509    0.7951 H       1  UNL11       0.0424
     35 H          -1.0869    2.9341    1.4641 H       1  UNL11       0.1499
     36 H           2.8203   -3.2356   -0.3790 H       1  UNL11       0.0746
     37 H           2.7110   -2.9827    1.3301 H       1  UNL11       0.0746
     38 H          -2.4604   -1.9569    0.5215 H       1  UNL11       0.2954
     39 H          -0.0097    2.4559   -1.9423 H       1  UNL11       0.0716
     40 H          -0.4823   -6.0469    1.0654 H       1  UNL11       0.0342
     41 H           0.7291   -5.9450    2.3891 H       1  UNL11       0.0342
     42 H          -0.9417   -5.3987    2.6513 H       1  UNL11       0.0342
     43 H          -5.7354    5.2113   -2.7301 H       1  UNL11       0.0687
     44 H          -6.1488    4.6242   -1.0971 H       1  UNL11       0.0687
     45 H          -5.9709    6.3699   -1.4071 H       1  UNL11       0.0687
     46 H          -2.5723   -0.7180   -5.1058 H       1  UNL11       0.1442
     47 H          -4.0547    0.0370   -4.6978 H       1  UNL11       0.1442
@<TRIPOS>BOND
     1     1    15    1
     2     1    20    1
     3     2    27   ar
     4     2    29   ar
     5     3    17    2
     6     4    21    1
     7     4    26    1
     8     5    22    1
     9     5    38    1
    10     6    22    2
    11     7    23    2
    12     8    12    1
    13     8    30    1
    14     9    26    2
    15    10    15    1
    16    10    17   am
    17    10    18    1
    18    16    11    1
    19    11    23   am
    20    11    35    1
    21    12    24    2
    22    13    25   ar
    23    13    29   ar
    24    14    29    1
    25    14    46    1
    26    14    47    1
    27    15    16    1
    28    15    31    1
    29    16    17    1
    30    16    32    1
    31    18    19    2
    32    18    22    1
    33    19    20    1
    34    19    21    1
    35    20    33    1
    36    20    34    1
    37    21    36    1
    38    21    37    1
    39    23    24    1
    40    24    25    1
    41    25    27   ar
    42    26    28    1
    43    27    39    1
    44    28    40    1
    45    28    41    1
    46    28    42    1
    47    30    43    1
    48    30    44    1
    49    30    45    1
