REMARK  10 active torsions:
REMARK  status: ('A' for Active; 'I' for Inactive)
REMARK    1  A    between atoms: O_4  and  C_21 
REMARK    2  A    between atoms: O_4  and  C_26 
REMARK    3  A    between atoms: O_5  and  C_22 
REMARK    4  A    between atoms: O_8  and  N_12 
REMARK    5  A    between atoms: CA_16  and  N_11 
REMARK       I    between atoms: N_11  and  C_23 
REMARK    6  A    between atoms: N_14  and  C_29 
REMARK    7  A    between atoms: CA_18  and  C_22 
REMARK    8  A    between atoms: C_19  and  C_21 
REMARK    9  A    between atoms: C_23  and  C_24 
REMARK   10  A    between atoms: C_24  and  C_25 
ROOT
ATOM      1  S   UNL d   1       1.381   0.971   0.653  0.00  0.00    -0.136 SA
ATOM      2  O   UNL d   1      -2.507  -0.370   1.257  0.00  0.00    -0.271 OA
ATOM      3  N   UNL d   1      -0.667  -0.512  -0.171  0.00  0.00    -0.293 N 
ATOM      4  C   UNL d   1       0.016   0.726  -0.526  0.00  0.00     0.187 C 
ATOM      5  CA  UNL d   1      -1.341   1.450  -0.216  0.00  0.00     0.211 C 
ATOM      6  C   UNL d   1      -1.679   0.107   0.505  0.00  0.00     0.251 C 
ATOM      7  CA  UNL d   1      -0.030  -1.711   0.035  0.00  0.00     0.117 C 
ATOM      8  C   UNL d   1       1.329  -1.771   0.164  0.00  0.00    -0.013 C 
ATOM      9  C   UNL d   1       2.229  -0.551   0.136  0.00  0.00     0.115 C 
ENDROOT
BRANCH   5  10
ATOM     10  N   UNL d   1      -1.244   2.775   0.466  0.00  0.00    -0.339 N 
ATOM     11  C   UNL d   1      -2.237   3.734   0.211  0.00  0.00     0.275 C 
ATOM     12  O   UNL d   1      -2.204   4.844   0.732  0.00  0.00    -0.266 OA
ATOM     13  H   UNL d   1      -0.699   2.893   1.319  0.00  0.00     0.163 HD
BRANCH  11  14
ATOM     14  C   UNL d   1      -3.336   3.355  -0.803  0.00  0.00     0.180 C 
ATOM     15  N   UNL d   1      -3.955   4.172  -1.612  0.00  0.00    -0.126 NA
BRANCH  15  16
ATOM     16  O   UNL d   1      -3.594   5.514  -1.519  0.00  0.00    -0.261 OA
ATOM     17  C   UNL d   1      -3.767   6.085  -2.822  0.00  0.00     0.240 C 
ENDBRANCH  15  16
BRANCH  14  18
ATOM     18  C   UNL d   1      -3.822   1.977  -0.896  0.00  0.00     0.102 A 
ATOM     19  N   UNL d   1      -3.799   1.118   0.197  0.00  0.00    -0.222 NA
ATOM     20  C   UNL d   1      -4.432   0.010  -0.092  0.00  0.00     0.164 A 
ATOM     21  S   UNL d   1      -5.023  -0.120  -1.696  0.00  0.00    -0.062 SA
ATOM     22  C   UNL d   1      -4.423   1.444  -2.026  0.00  0.00     0.087 A 
BRANCH  20  23
ATOM     23  N   UNL d   1      -4.639  -0.959   0.805  0.00  0.00    -0.378 N 
ATOM     24  H   UNL d   1      -4.954  -1.867   0.489  0.00  0.00     0.158 HD
ATOM     25  H   UNL d   1      -4.064  -0.964   1.639  0.00  0.00     0.158 HD
ENDBRANCH  20  23
ENDBRANCH  14  18
ENDBRANCH  11  14
ENDBRANCH   5  10
BRANCH   7  26
ATOM     26  C   UNL d   1      -0.853  -2.982  -0.032  0.00  0.00     0.194 C 
ATOM     27  OXT UNL d   1      -0.373  -4.106   0.023  0.00  0.00    -0.645 OA
BRANCH  26  28
ATOM     28  O   UNL d   1      -2.156  -2.802  -0.309  0.00  0.00    -0.772 OA
ATOM     29  H   UNL d   1      -2.503  -1.899  -0.140  0.00  0.00     0.167 HD
ENDBRANCH  26  28
ENDBRANCH   7  26
BRANCH   8  30
ATOM     30  C   UNL d   1       2.100  -3.054   0.424  0.00  0.00     0.216 C 
BRANCH  30  31
ATOM     31  O   UNL d   1       3.506  -2.772   0.523  0.00  0.00    -0.317 OA
BRANCH  31  32
ATOM     32  C   UNL d   1       4.176  -2.627  -0.650  0.00  0.00     0.255 C 
ATOM     33  O   UNL d   1       3.685  -2.717  -1.766  0.00  0.00    -0.266 OA
ATOM     34  C   UNL d   1       5.618  -2.326  -0.379  0.00  0.00     0.126 C 
ENDBRANCH  31  32
ENDBRANCH  30  31
ENDBRANCH   8  30
TORSDOF 10
