@<TRIPOS>MOLECULE
5742673
 47 49 0 0 0
SMALL
GASTEIGER

@<TRIPOS>ATOM
      1 S           1.3810    0.9710    0.6529 S.3     1  UNL11      -0.1310
      2 S          -5.0229   -0.1204   -1.6956 S.3     1  UNL11      -0.0604
      3 O          -2.5070   -0.3705    1.2568 O.2     1  UNL11      -0.2731
      4 O           3.5061   -2.7717    0.5229 O.3     1  UNL11      -0.4603
      5 O          -2.1562   -2.8020   -0.3086 O.3     1  UNL11      -0.4763
      6 OXT        -0.3731   -4.1060    0.0226 O.2     1  UNL11      -0.2437
      7 O          -2.2038    4.8436    0.7320 O.2     1  UNL11      -0.2683
      8 O          -3.5943    5.5145   -1.5194 O.2     1  UNL11      -0.3964
      9 O           3.6854   -2.7167   -1.7657 O.2     1  UNL11      -0.2512
     10 N          -0.6669   -0.5118   -0.1713 N.am    1  UNL11      -0.2489
     11 N          -1.2442    2.7754    0.4656 N.am    1  UNL11      -0.2963
     12 N          -3.9547    4.1719   -1.6116 N.2     1  UNL11      -0.0779
     13 N          -3.7986    1.1184    0.1966 N.pl3   1  UNL11      -0.2233
     14 N          -4.6389   -0.9593    0.8052 N.pl3   1  UNL11      -0.3375
     15 C           0.0161    0.7262   -0.5260 C.3     1  UNL11       0.1042
     16 CA         -1.3406    1.4497   -0.2162 C.3     1  UNL11       0.1286
     17 C          -1.6795    0.1071    0.5046 C.2     1  UNL11       0.2440
     18 CA         -0.0304   -1.7114    0.0351 C.2     1  UNL11       0.1252
     19 C           1.3289   -1.7714    0.1641 C.2     1  UNL11       0.0056
     20 C           2.2288   -0.5508    0.1357 C.3     1  UNL11       0.0220
     21 C           2.1004   -3.0542    0.4242 C.3     1  UNL11       0.1166
     22 C          -0.8528   -2.9822   -0.0321 C.2     1  UNL11       0.3515
     23 C          -2.2372    3.7342    0.2115 C.2     1  UNL11       0.2684
     24 C          -3.3364    3.3552   -0.8033 C.2     1  UNL11       0.1897
     25 C          -3.8216    1.9774   -0.8962 C.3     1  UNL11       0.1067
     26 C           4.1760   -2.6270   -0.6497 C.2     1  UNL11       0.3043
     27 C          -4.4233    1.4437   -2.0261 C.3     1  UNL11       0.0067
     28 C           5.6177   -2.3257   -0.3794 C.3     1  UNL11       0.0332
     29 C          -4.4322    0.0099   -0.0920 C.3     1  UNL11       0.1562
     30 C          -3.7674    6.0850   -2.8222 C.3     1  UNL11       0.1072
     31 H           0.3053    0.7794   -1.5815 H       1  UNL11       0.0644
     32 HA         -2.0118    1.5433   -1.0824 H       1  UNL11       0.0622
     33 H           2.6247   -0.4162   -0.8766 H       1  UNL11       0.0424
     34 H           3.0884   -0.6699    0.8005 H       1  UNL11       0.0424
     35 H          -0.6987    2.8932    1.3195 H       1  UNL11       0.1499
     36 H           1.7735   -3.5322    1.3534 H       1  UNL11       0.0746
     37 H           1.9255   -3.8149   -0.3481 H       1  UNL11       0.0746
     38 H          -2.5028   -1.8994   -0.1402 H       1  UNL11       0.2954
     39 H          -4.5803    1.9171   -2.9872 H       1  UNL11       0.0716
     40 H           5.6997   -1.4271    0.2376 H       1  UNL11       0.0342
     41 H           6.0869   -3.1783    0.1173 H       1  UNL11       0.0342
     42 H           6.1336   -2.1416   -1.3262 H       1  UNL11       0.0342
     43 H          -3.4386    5.3906   -3.6062 H       1  UNL11       0.0687
     44 H          -4.8209    6.3367   -2.9885 H       1  UNL11       0.0687
     45 H          -3.1677    6.9949   -2.8960 H       1  UNL11       0.0687
     46 H          -4.9537   -1.8675    0.4890 H       1  UNL11       0.1442
     47 H          -4.0645   -0.9635    1.6393 H       1  UNL11       0.1442
@<TRIPOS>BOND
     1     1    15    1
     2     1    20    1
     3     2    27   ar
     4     2    29   ar
     5     3    17    2
     6     4    21    1
     7     4    26    1
     8     5    22    1
     9     5    38    1
    10     6    22    2
    11     7    23    2
    12     8    12    1
    13     8    30    1
    14     9    26    2
    15    10    15    1
    16    10    17   am
    17    10    18    1
    18    16    11    1
    19    11    23   am
    20    11    35    1
    21    12    24    2
    22    13    25   ar
    23    13    29   ar
    24    14    29    1
    25    14    46    1
    26    14    47    1
    27    15    16    1
    28    15    31    1
    29    16    17    1
    30    16    32    1
    31    18    19    2
    32    18    22    1
    33    19    20    1
    34    19    21    1
    35    20    33    1
    36    20    34    1
    37    21    36    1
    38    21    37    1
    39    23    24    1
    40    24    25    1
    41    25    27   ar
    42    26    28    1
    43    27    39    1
    44    28    40    1
    45    28    41    1
    46    28    42    1
    47    30    43    1
    48    30    44    1
    49    30    45    1
