REMARK  2 active torsions:
REMARK  status: ('A' for Active; 'I' for Inactive)
REMARK    1  A    between atoms: C_1  and  O_3 
REMARK    2  A    between atoms: C_1  and  C_4 
ROOT
ATOM      1  C   UNL d   1       0.960  -0.058  -0.076  0.00  0.00     0.213 C 
ATOM      2  O   UNL d   1       0.259   0.827  -0.529  0.00  0.00    -0.644 OA
ENDROOT
BRANCH   1   3
ATOM      3  O   UNL d   1       0.456  -1.159   0.488  0.00  0.00    -0.771 OA
ATOM      4  H   UNL d   1      -0.516  -1.062   0.438  0.00  0.00     0.168 HD
ENDBRANCH   1   3
BRANCH   1   5
ATOM      5  C   UNL d   1       2.495  -0.023  -0.095  0.00  0.00     0.218 C 
ATOM      6  O   UNL d   1       3.105   0.922  -0.580  0.00  0.00    -0.286 OA
ATOM      7  C   UNL d   1       3.174  -1.213   0.516  0.00  0.00     0.103 C 
ENDBRANCH   1   5
TORSDOF 2
