@<TRIPOS>MOLECULE
PYR
 10 9 0 0 0
SMALL
GASTEIGER

@<TRIPOS>ATOM
      1 C           0.9595   -0.0580   -0.0762 C.2     1  UNL1        0.3723
      2 O           0.3114   -0.9727    0.3943 O.2     1  UNL1       -0.2419
      3 O           0.3929    1.0183   -0.6294 O.3     1  UNL1       -0.4751
      4 C           2.4954   -0.0230   -0.0946 C.2     1  UNL1        0.2360
      5 O           3.1047    0.9218   -0.5797 O.2     1  UNL1       -0.2854
      6 C           3.1741   -1.2130    0.5159 C.3     1  UNL1        0.0052
      7 H          -0.5718    0.8764   -0.5559 H       1  UNL1        0.2955
      8 H           2.8960   -1.2996    1.5694 H       1  UNL1        0.0311
      9 H           2.8960   -2.1192   -0.0282 H       1  UNL1        0.0311
     10 H           4.2587   -1.0855    0.4505 H       1  UNL1        0.0311
@<TRIPOS>BOND
     1     1     2    2
     2     1     3    1
     3     1     4    1
     4     3     7    1
     5     4     5    2
     6     4     6    1
     7     6     8    1
     8     6     9    1
     9     6    10    1
