MODEL 1
REMARK VINA RESULT:      -8.4      0.000      0.000
REMARK  10 active torsions:
REMARK  status: ('A' for Active; 'I' for Inactive)
REMARK    1  A    between atoms: O_4  and  C_21 
REMARK    2  A    between atoms: O_4  and  C_26 
REMARK    3  A    between atoms: O_5  and  C_22 
REMARK    4  A    between atoms: O_8  and  N_12 
REMARK    5  A    between atoms: CA_16  and  N_11 
REMARK       I    between atoms: N_11  and  C_23 
REMARK    6  A    between atoms: N_14  and  C_29 
REMARK    7  A    between atoms: CA_18  and  C_22 
REMARK    8  A    between atoms: C_19  and  C_21 
REMARK    9  A    between atoms: C_23  and  C_24 
REMARK   10  A    between atoms: C_24  and  C_25 
ROOT
ATOM      1  S   UNL d   1      40.088  -8.279  -3.751  0.00  0.00    -0.136 SA
ATOM      2  O   UNL d   1      37.415  -5.531  -2.178  0.00  0.00    -0.271 OA
ATOM      3  N   UNL d   1      38.793  -7.325  -1.631  0.00  0.00    -0.293 N 
ATOM      4  C   UNL d   1      38.770  -8.490  -2.514  0.00  0.00     0.187 C 
ATOM      5  CA  UNL d   1      37.319  -8.024  -2.901  0.00  0.00     0.211 C 
ATOM      6  C   UNL d   1      37.776  -6.675  -2.264  0.00  0.00     0.251 C 
ATOM      7  CA  UNL d   1      39.930  -6.838  -1.020  0.00  0.00     0.117 C 
ATOM      8  C   UNL d   1      41.172  -7.269  -1.390  0.00  0.00    -0.013 C 
ATOM      9  C   UNL d   1      41.416  -8.266  -2.502  0.00  0.00     0.115 C 
ENDROOT
BRANCH   5  10
ATOM     10  N   UNL d   1      36.885  -8.202  -4.333  0.00  0.00    -0.339 N 
ATOM     11  C   UNL d   1      35.613  -7.730  -4.650  0.00  0.00     0.275 C 
ATOM     12  O   UNL d   1      34.910  -7.221  -3.776  0.00  0.00    -0.266 OA
ATOM     13  H   UNL d   1      37.518  -8.455  -5.085  0.00  0.00     0.163 HD
BRANCH  11  14
ATOM     14  C   UNL d   1      35.029  -7.842  -6.062  0.00  0.00     0.180 C 
ATOM     15  N   UNL d   1      33.907  -8.372  -6.449  0.00  0.00    -0.126 NA
BRANCH  15  16
ATOM     16  O   UNL d   1      33.083  -8.918  -5.464  0.00  0.00    -0.261 OA
ATOM     17  C   UNL d   1      31.827  -9.207  -6.105  0.00  0.00     0.240 C 
ENDBRANCH  15  16
BRANCH  14  18
ATOM     18  C   UNL d   1      35.890  -7.404  -7.171  0.00  0.00     0.102 A 
ATOM     19  N   UNL d   1      37.272  -7.345  -7.045  0.00  0.00    -0.222 NA
ATOM     20  C   UNL d   1      37.823  -7.075  -8.201  0.00  0.00     0.164 A 
ATOM     21  S   UNL d   1      36.734  -6.776  -9.490  0.00  0.00    -0.062 SA
ATOM     22  C   UNL d   1      35.422  -7.076  -8.434  0.00  0.00     0.087 A 
BRANCH  20  23
ATOM     23  N   UNL d   1      39.151  -7.030  -8.382  0.00  0.00    -0.378 N 
ATOM     24  H   UNL d   1      39.696  -6.346  -7.874  0.00  0.00     0.158 HD
ATOM     25  H   UNL d   1      39.610  -7.917  -8.552  0.00  0.00     0.158 HD
ENDBRANCH  20  23
ENDBRANCH  14  18
ENDBRANCH  11  14
ENDBRANCH   5  10
BRANCH   7  26
ATOM     26  C   UNL d   1      39.755  -5.913   0.173  0.00  0.00     0.194 C 
ATOM     27  OXT UNL d   1      40.062  -4.728   0.153  0.00  0.00    -0.645 OA
BRANCH  26  28
ATOM     28  O   UNL d   1      39.380  -6.516   1.312  0.00  0.00    -0.772 OA
ATOM     29  H   UNL d   1      38.518  -6.982   1.280  0.00  0.00     0.167 HD
ENDBRANCH  26  28
ENDBRANCH   7  26
BRANCH   8  30
ATOM     30  C   UNL d   1      42.464  -6.744  -0.782  0.00  0.00     0.216 C 
BRANCH  30  31
ATOM     31  O   UNL d   1      43.036  -7.724   0.098  0.00  0.00    -0.317 OA
BRANCH  31  32
ATOM     32  C   UNL d   1      44.377  -7.646   0.297  0.00  0.00     0.255 C 
ATOM     33  O   UNL d   1      44.958  -7.910   1.339  0.00  0.00    -0.266 OA
ATOM     34  C   UNL d   1      45.058  -7.202  -0.962  0.00  0.00     0.126 C 
ENDBRANCH  31  32
ENDBRANCH  30  31
ENDBRANCH   8  30
TORSDOF 10
ENDMDL
MODEL 2
REMARK VINA RESULT:      -7.7     14.696     18.624
REMARK  10 active torsions:
REMARK  status: ('A' for Active; 'I' for Inactive)
REMARK    1  A    between atoms: O_4  and  C_21 
REMARK    2  A    between atoms: O_4  and  C_26 
REMARK    3  A    between atoms: O_5  and  C_22 
REMARK    4  A    between atoms: O_8  and  N_12 
REMARK    5  A    between atoms: CA_16  and  N_11 
REMARK       I    between atoms: N_11  and  C_23 
REMARK    6  A    between atoms: N_14  and  C_29 
REMARK    7  A    between atoms: CA_18  and  C_22 
REMARK    8  A    between atoms: C_19  and  C_21 
REMARK    9  A    between atoms: C_23  and  C_24 
REMARK   10  A    between atoms: C_24  and  C_25 
ROOT
ATOM      1  S   UNL d   1      36.714 -11.937  11.943  0.00  0.00    -0.136 SA
ATOM      2  O   UNL d   1      37.579  -8.161  13.411  0.00  0.00    -0.271 OA
ATOM      3  N   UNL d   1      38.006  -9.629  11.656  0.00  0.00    -0.293 N 
ATOM      4  C   UNL d   1      38.287 -11.023  11.994  0.00  0.00     0.187 C 
ATOM      5  CA  UNL d   1      38.768 -10.469  13.385  0.00  0.00     0.211 C 
ATOM      6  C   UNL d   1      37.980  -9.196  12.949  0.00  0.00     0.251 C 
ATOM      7  CA  UNL d   1      37.274  -9.230  10.558  0.00  0.00     0.117 C 
ATOM      8  C   UNL d   1      36.544 -10.126   9.830  0.00  0.00    -0.013 C 
ATOM      9  C   UNL d   1      36.443 -11.597  10.172  0.00  0.00     0.115 C 
ENDROOT
BRANCH   5  10
ATOM     10  N   UNL d   1      38.469 -11.295  14.609  0.00  0.00    -0.339 N 
ATOM     11  C   UNL d   1      39.403 -12.281  14.925  0.00  0.00     0.275 C 
ATOM     12  O   UNL d   1      40.390 -12.446  14.207  0.00  0.00    -0.266 OA
ATOM     13  H   UNL d   1      37.761 -11.051  15.293  0.00  0.00     0.163 HD
BRANCH  11  14
ATOM     14  C   UNL d   1      39.237 -13.204  16.137  0.00  0.00     0.180 C 
ATOM     15  N   UNL d   1      39.738 -13.093  17.330  0.00  0.00    -0.126 NA
BRANCH  15  16
ATOM     16  O   UNL d   1      40.539 -11.979  17.588  0.00  0.00    -0.261 OA
ATOM     17  C   UNL d   1      41.898 -12.405  17.381  0.00  0.00     0.240 C 
ENDBRANCH  15  16
BRANCH  14  18
ATOM     18  C   UNL d   1      38.513 -14.464  15.913  0.00  0.00     0.102 A 
ATOM     19  N   UNL d   1      38.545 -15.502  16.837  0.00  0.00    -0.222 NA
ATOM     20  C   UNL d   1      37.709 -16.447  16.490  0.00  0.00     0.164 A 
ATOM     21  S   UNL d   1      36.903 -16.212  14.995  0.00  0.00    -0.062 SA
ATOM     22  C   UNL d   1      37.697 -14.707  14.818  0.00  0.00     0.087 A 
BRANCH  20  23
ATOM     23  N   UNL d   1      37.487 -17.534  17.241  0.00  0.00    -0.378 N 
ATOM     24  H   UNL d   1      37.544 -18.449  16.815  0.00  0.00     0.158 HD
ATOM     25  H   UNL d   1      37.790 -17.481  18.206  0.00  0.00     0.158 HD
ENDBRANCH  20  23
ENDBRANCH  14  18
ENDBRANCH  11  14
ENDBRANCH   5  10
BRANCH   7  26
ATOM     26  C   UNL d   1      37.412  -7.788  10.097  0.00  0.00     0.194 C 
ATOM     27  OXT UNL d   1      38.325  -7.398   9.380  0.00  0.00    -0.645 OA
BRANCH  26  28
ATOM     28  O   UNL d   1      36.547  -6.926  10.654  0.00  0.00    -0.772 OA
ATOM     29  H   UNL d   1      36.265  -6.181  10.083  0.00  0.00     0.167 HD
ENDBRANCH  26  28
ENDBRANCH   7  26
BRANCH   8  30
ATOM     30  C   UNL d   1      35.686  -9.743   8.633  0.00  0.00     0.216 C 
BRANCH  30  31
ATOM     31  O   UNL d   1      36.517  -9.439   7.501  0.00  0.00    -0.317 OA
BRANCH  31  32
ATOM     32  C   UNL d   1      35.875  -9.221   6.324  0.00  0.00     0.255 C 
ATOM     33  O   UNL d   1      34.987  -9.918   5.859  0.00  0.00    -0.266 OA
ATOM     34  C   UNL d   1      36.403  -7.978   5.674  0.00  0.00     0.126 C 
ENDBRANCH  31  32
ENDBRANCH  30  31
ENDBRANCH   8  30
TORSDOF 10
ENDMDL
MODEL 3
REMARK VINA RESULT:      -7.3      2.185      3.325
REMARK  10 active torsions:
REMARK  status: ('A' for Active; 'I' for Inactive)
REMARK    1  A    between atoms: O_4  and  C_21 
REMARK    2  A    between atoms: O_4  and  C_26 
REMARK    3  A    between atoms: O_5  and  C_22 
REMARK    4  A    between atoms: O_8  and  N_12 
REMARK    5  A    between atoms: CA_16  and  N_11 
REMARK       I    between atoms: N_11  and  C_23 
REMARK    6  A    between atoms: N_14  and  C_29 
REMARK    7  A    between atoms: CA_18  and  C_22 
REMARK    8  A    between atoms: C_19  and  C_21 
REMARK    9  A    between atoms: C_23  and  C_24 
REMARK   10  A    between atoms: C_24  and  C_25 
ROOT
ATOM      1  S   UNL d   1      36.838  -8.528  -2.340  0.00  0.00    -0.136 SA
ATOM      2  O   UNL d   1      40.519  -7.642  -4.024  0.00  0.00    -0.271 OA
ATOM      3  N   UNL d   1      38.986  -6.959  -2.410  0.00  0.00    -0.293 N 
ATOM      4  C   UNL d   1      37.575  -6.926  -2.789  0.00  0.00     0.187 C 
ATOM      5  CA  UNL d   1      38.094  -6.745  -4.263  0.00  0.00     0.211 C 
ATOM      6  C   UNL d   1      39.439  -7.256  -3.661  0.00  0.00     0.251 C 
ATOM      7  CA  UNL d   1      39.447  -7.350  -1.171  0.00  0.00     0.117 C 
ATOM      8  C   UNL d   1      38.625  -7.971  -0.273  0.00  0.00    -0.013 C 
ATOM      9  C   UNL d   1      37.180  -8.314  -0.561  0.00  0.00     0.115 C 
ENDROOT
BRANCH   5  10
ATOM     10  N   UNL d   1      37.324  -7.425  -5.364  0.00  0.00    -0.339 N 
ATOM     11  C   UNL d   1      36.083  -6.871  -5.677  0.00  0.00     0.275 C 
ATOM     12  O   UNL d   1      35.670  -5.894  -5.050  0.00  0.00    -0.266 OA
ATOM     13  H   UNL d   1      37.729  -8.109  -5.994  0.00  0.00     0.163 HD
BRANCH  11  14
ATOM     14  C   UNL d   1      35.181  -7.452  -6.771  0.00  0.00     0.180 C 
ATOM     15  N   UNL d   1      34.197  -8.293  -6.665  0.00  0.00    -0.126 NA
BRANCH  15  16
ATOM     16  O   UNL d   1      33.878  -8.748  -5.384  0.00  0.00    -0.261 OA
ATOM     17  C   UNL d   1      32.578  -8.210  -5.079  0.00  0.00     0.240 C 
ENDBRANCH  15  16
BRANCH  14  18
ATOM     18  C   UNL d   1      35.531  -7.121  -8.160  0.00  0.00     0.102 A 
ATOM     19  N   UNL d   1      36.478  -6.152  -8.467  0.00  0.00    -0.222 NA
ATOM     20  C   UNL d   1      36.724  -6.146  -9.752  0.00  0.00     0.164 A 
ATOM     21  S   UNL d   1      35.776  -7.220 -10.694  0.00  0.00    -0.062 SA
ATOM     22  C   UNL d   1      35.009  -7.772  -9.268  0.00  0.00     0.087 A 
BRANCH  20  23
ATOM     23  N   UNL d   1      37.650  -5.355 -10.312  0.00  0.00    -0.378 N 
ATOM     24  H   UNL d   1      38.563  -5.736 -10.522  0.00  0.00     0.158 HD
ATOM     25  H   UNL d   1      37.309  -4.654 -10.958  0.00  0.00     0.158 HD
ENDBRANCH  20  23
ENDBRANCH  14  18
ENDBRANCH  11  14
ENDBRANCH   5  10
BRANCH   7  26
ATOM     26  C   UNL d   1      40.858  -6.945  -0.776  0.00  0.00     0.194 C 
ATOM     27  OXT UNL d   1      41.838  -7.654  -0.968  0.00  0.00    -0.645 OA
BRANCH  26  28
ATOM     28  O   UNL d   1      40.946  -5.814  -0.057  0.00  0.00    -0.772 OA
ATOM     29  H   UNL d   1      40.148  -5.579   0.461  0.00  0.00     0.167 HD
ENDBRANCH  26  28
ENDBRANCH   7  26
BRANCH   8  30
ATOM     30  C   UNL d   1      39.082  -8.459   1.093  0.00  0.00     0.216 C 
BRANCH  30  31
ATOM     31  O   UNL d   1      38.967  -7.406   2.063  0.00  0.00    -0.317 OA
BRANCH  31  32
ATOM     32  C   UNL d   1      38.629  -7.782   3.324  0.00  0.00     0.255 C 
ATOM     33  O   UNL d   1      39.291  -7.575   4.329  0.00  0.00    -0.266 OA
ATOM     34  C   UNL d   1      37.303  -8.480   3.312  0.00  0.00     0.126 C 
ENDBRANCH  31  32
ENDBRANCH  30  31
ENDBRANCH   8  30
TORSDOF 10
ENDMDL
MODEL 4
REMARK VINA RESULT:      -7.2      3.627      5.507
REMARK  10 active torsions:
REMARK  status: ('A' for Active; 'I' for Inactive)
REMARK    1  A    between atoms: O_4  and  C_21 
REMARK    2  A    between atoms: O_4  and  C_26 
REMARK    3  A    between atoms: O_5  and  C_22 
REMARK    4  A    between atoms: O_8  and  N_12 
REMARK    5  A    between atoms: CA_16  and  N_11 
REMARK       I    between atoms: N_11  and  C_23 
REMARK    6  A    between atoms: N_14  and  C_29 
REMARK    7  A    between atoms: CA_18  and  C_22 
REMARK    8  A    between atoms: C_19  and  C_21 
REMARK    9  A    between atoms: C_23  and  C_24 
REMARK   10  A    between atoms: C_24  and  C_25 
ROOT
ATOM      1  S   UNL d   1      36.719  -7.048  -5.001  0.00  0.00    -0.136 SA
ATOM      2  O   UNL d   1      38.722 -10.601  -5.728  0.00  0.00    -0.271 OA
ATOM      3  N   UNL d   1      38.900  -8.535  -4.670  0.00  0.00    -0.293 N 
ATOM      4  C   UNL d   1      38.464  -7.355  -5.414  0.00  0.00     0.187 C 
ATOM      5  CA  UNL d   1      38.775  -8.196  -6.705  0.00  0.00     0.211 C 
ATOM      6  C   UNL d   1      38.743  -9.399  -5.713  0.00  0.00     0.251 C 
ATOM      7  CA  UNL d   1      38.705  -8.714  -3.316  0.00  0.00     0.117 C 
ATOM      8  C   UNL d   1      37.867  -7.900  -2.608  0.00  0.00    -0.013 C 
ATOM      9  C   UNL d   1      37.066  -6.778  -3.231  0.00  0.00     0.115 C 
ENDROOT
BRANCH   5  10
ATOM     10  N   UNL d   1      37.860  -8.024  -7.889  0.00  0.00    -0.339 N 
ATOM     11  C   UNL d   1      38.389  -7.332  -8.977  0.00  0.00     0.275 C 
ATOM     12  O   UNL d   1      39.536  -6.886  -8.924  0.00  0.00    -0.266 OA
ATOM     13  H   UNL d   1      36.991  -8.535  -8.007  0.00  0.00     0.163 HD
BRANCH  11  14
ATOM     14  C   UNL d   1      37.581  -7.074 -10.253  0.00  0.00     0.180 C 
ATOM     15  N   UNL d   1      37.571  -6.028 -11.023  0.00  0.00    -0.126 NA
BRANCH  15  16
ATOM     16  O   UNL d   1      38.414  -4.970 -10.678  0.00  0.00    -0.261 OA
ATOM     17  C   UNL d   1      39.017  -4.520 -11.905  0.00  0.00     0.240 C 
ENDBRANCH  15  16
BRANCH  14  18
ATOM     18  C   UNL d   1      36.578  -8.086 -10.616  0.00  0.00     0.102 A 
ATOM     19  N   UNL d   1      36.941  -9.350 -11.064  0.00  0.00    -0.222 NA
ATOM     20  C   UNL d   1      35.885 -10.114 -11.176  0.00  0.00     0.164 A 
ATOM     21  S   UNL d   1      34.382  -9.355 -10.853  0.00  0.00    -0.062 SA
ATOM     22  C   UNL d   1      35.209  -7.903 -10.488  0.00  0.00     0.087 A 
BRANCH  20  23
ATOM     23  N   UNL d   1      35.955 -11.407 -11.523  0.00  0.00    -0.378 N 
ATOM     24  H   UNL d   1      35.291 -12.061 -11.131  0.00  0.00     0.158 HD
ATOM     25  H   UNL d   1      36.252 -11.601 -12.472  0.00  0.00     0.158 HD
ENDBRANCH  20  23
ENDBRANCH  14  18
ENDBRANCH  11  14
ENDBRANCH   5  10
BRANCH   7  26
ATOM     26  C   UNL d   1      39.555  -9.755  -2.606  0.00  0.00     0.194 C 
ATOM     27  OXT UNL d   1      40.658  -9.511  -2.134  0.00  0.00    -0.645 OA
BRANCH  26  28
ATOM     28  O   UNL d   1      39.085 -11.011  -2.664  0.00  0.00    -0.772 OA
ATOM     29  H   UNL d   1      38.288 -11.139  -3.221  0.00  0.00     0.167 HD
ENDBRANCH  26  28
ENDBRANCH   7  26
BRANCH   8  30
ATOM     30  C   UNL d   1      37.581  -8.068  -1.123  0.00  0.00     0.216 C 
BRANCH  30  31
ATOM     31  O   UNL d   1      36.946  -6.891  -0.600  0.00  0.00    -0.317 OA
BRANCH  31  32
ATOM     32  C   UNL d   1      37.485  -6.368   0.531  0.00  0.00     0.255 C 
ATOM     33  O   UNL d   1      36.922  -6.281   1.612  0.00  0.00    -0.266 OA
ATOM     34  C   UNL d   1      38.892  -5.922   0.272  0.00  0.00     0.126 C 
ENDBRANCH  31  32
ENDBRANCH  30  31
ENDBRANCH   8  30
TORSDOF 10
ENDMDL
MODEL 5
REMARK VINA RESULT:      -7.2      2.711      8.556
REMARK  10 active torsions:
REMARK  status: ('A' for Active; 'I' for Inactive)
REMARK    1  A    between atoms: O_4  and  C_21 
REMARK    2  A    between atoms: O_4  and  C_26 
REMARK    3  A    between atoms: O_5  and  C_22 
REMARK    4  A    between atoms: O_8  and  N_12 
REMARK    5  A    between atoms: CA_16  and  N_11 
REMARK       I    between atoms: N_11  and  C_23 
REMARK    6  A    between atoms: N_14  and  C_29 
REMARK    7  A    between atoms: CA_18  and  C_22 
REMARK    8  A    between atoms: C_19  and  C_21 
REMARK    9  A    between atoms: C_23  and  C_24 
REMARK   10  A    between atoms: C_24  and  C_25 
ROOT
ATOM      1  S   UNL d   1      37.555  -7.778  -4.823  0.00  0.00    -0.136 SA
ATOM      2  O   UNL d   1      34.489  -9.670  -2.775  0.00  0.00    -0.271 OA
ATOM      3  N   UNL d   1      35.004  -7.802  -4.066  0.00  0.00    -0.293 N 
ATOM      4  C   UNL d   1      36.244  -7.092  -3.762  0.00  0.00     0.187 C 
ATOM      5  CA  UNL d   1      36.092  -7.680  -2.312  0.00  0.00     0.211 C 
ATOM      6  C   UNL d   1      35.093  -8.656  -3.006  0.00  0.00     0.251 C 
ATOM      7  CA  UNL d   1      34.514  -7.998  -5.340  0.00  0.00     0.117 C 
ATOM      8  C   UNL d   1      35.284  -7.748  -6.440  0.00  0.00    -0.013 C 
ATOM      9  C   UNL d   1      36.722  -7.282  -6.367  0.00  0.00     0.115 C 
ENDROOT
BRANCH   5  10
ATOM     10  N   UNL d   1      37.346  -8.094  -1.589  0.00  0.00    -0.339 N 
ATOM     11  C   UNL d   1      38.007  -7.090  -0.884  0.00  0.00     0.275 C 
ATOM     12  O   UNL d   1      37.568  -5.939  -0.895  0.00  0.00    -0.266 OA
ATOM     13  H   UNL d   1      37.612  -9.061  -1.432  0.00  0.00     0.163 HD
BRANCH  11  14
ATOM     14  C   UNL d   1      39.298  -7.354  -0.102  0.00  0.00     0.180 C 
ATOM     15  N   UNL d   1      39.480  -7.436   1.182  0.00  0.00    -0.126 NA
BRANCH  15  16
ATOM     16  O   UNL d   1      38.360  -7.276   1.999  0.00  0.00    -0.261 OA
ATOM     17  C   UNL d   1      38.145  -8.547   2.639  0.00  0.00     0.240 C 
ENDBRANCH  15  16
BRANCH  14  18
ATOM     18  C   UNL d   1      40.544  -7.409  -0.881  0.00  0.00     0.102 A 
ATOM     19  N   UNL d   1      41.716  -6.813  -0.433  0.00  0.00    -0.222 NA
ATOM     20  C   UNL d   1      42.715  -7.125  -1.218  0.00  0.00     0.164 A 
ATOM     21  S   UNL d   1      42.312  -8.063  -2.595  0.00  0.00    -0.062 SA
ATOM     22  C   UNL d   1      40.681  -8.097  -2.078  0.00  0.00     0.087 A 
BRANCH  20  23
ATOM     23  N   UNL d   1      43.977  -6.741  -0.978  0.00  0.00    -0.378 N 
ATOM     24  H   UNL d   1      44.197  -6.284  -0.103  0.00  0.00     0.158 HD
ATOM     25  H   UNL d   1      44.705  -7.335  -1.357  0.00  0.00     0.158 HD
ENDBRANCH  20  23
ENDBRANCH  14  18
ENDBRANCH  11  14
ENDBRANCH   5  10
BRANCH   7  26
ATOM     26  C   UNL d   1      33.047  -8.366  -5.490  0.00  0.00     0.194 C 
ATOM     27  OXT UNL d   1      32.629  -9.115  -6.364  0.00  0.00    -0.645 OA
BRANCH  26  28
ATOM     28  O   UNL d   1      32.206  -7.690  -4.690  0.00  0.00    -0.772 OA
ATOM     29  H   UNL d   1      32.195  -6.718  -4.813  0.00  0.00     0.167 HD
ENDBRANCH  26  28
ENDBRANCH   7  26
BRANCH   8  30
ATOM     30  C   UNL d   1      34.816  -7.979  -7.870  0.00  0.00     0.216 C 
BRANCH  30  31
ATOM     31  O   UNL d   1      35.683  -7.303  -8.794  0.00  0.00    -0.317 OA
BRANCH  31  32
ATOM     32  C   UNL d   1      35.349  -7.392 -10.108  0.00  0.00     0.255 C 
ATOM     33  O   UNL d   1      34.565  -8.195 -10.590  0.00  0.00    -0.266 OA
ATOM     34  C   UNL d   1      36.072  -6.339 -10.893  0.00  0.00     0.126 C 
ENDBRANCH  31  32
ENDBRANCH  30  31
ENDBRANCH   8  30
TORSDOF 10
ENDMDL
MODEL 6
REMARK VINA RESULT:      -7.1      3.237      4.774
REMARK  10 active torsions:
REMARK  status: ('A' for Active; 'I' for Inactive)
REMARK    1  A    between atoms: O_4  and  C_21 
REMARK    2  A    between atoms: O_4  and  C_26 
REMARK    3  A    between atoms: O_5  and  C_22 
REMARK    4  A    between atoms: O_8  and  N_12 
REMARK    5  A    between atoms: CA_16  and  N_11 
REMARK       I    between atoms: N_11  and  C_23 
REMARK    6  A    between atoms: N_14  and  C_29 
REMARK    7  A    between atoms: CA_18  and  C_22 
REMARK    8  A    between atoms: C_19  and  C_21 
REMARK    9  A    between atoms: C_23  and  C_24 
REMARK   10  A    between atoms: C_24  and  C_25 
ROOT
ATOM      1  S   UNL d   1      37.084  -9.686  -4.232  0.00  0.00    -0.136 SA
ATOM      2  O   UNL d   1      40.360  -7.247  -4.928  0.00  0.00    -0.271 OA
ATOM      3  N   UNL d   1      38.343  -7.387  -3.774  0.00  0.00    -0.293 N 
ATOM      4  C   UNL d   1      37.181  -7.890  -4.504  0.00  0.00     0.187 C 
ATOM      5  CA  UNL d   1      37.917  -7.383  -5.797  0.00  0.00     0.211 C 
ATOM      6  C   UNL d   1      39.165  -7.362  -4.862  0.00  0.00     0.251 C 
ATOM      7  CA  UNL d   1      38.610  -7.671  -2.452  0.00  0.00     0.117 C 
ATOM      8  C   UNL d   1      37.927  -8.649  -1.785  0.00  0.00    -0.013 C 
ATOM      9  C   UNL d   1      36.868  -9.516  -2.429  0.00  0.00     0.115 C 
ENDROOT
BRANCH   5  10
ATOM     10  N   UNL d   1      37.786  -8.212  -7.048  0.00  0.00    -0.339 N 
ATOM     11  C   UNL d   1      38.186  -7.599  -8.234  0.00  0.00     0.275 C 
ATOM     12  O   UNL d   1      38.598  -6.438  -8.218  0.00  0.00    -0.266 OA
ATOM     13  H   UNL d   1      37.618  -9.212  -7.045  0.00  0.00     0.163 HD
BRANCH  11  14
ATOM     14  C   UNL d   1      38.110  -8.311  -9.589  0.00  0.00     0.180 C 
ATOM     15  N   UNL d   1      38.921  -9.183 -10.107  0.00  0.00    -0.126 NA
BRANCH  15  16
ATOM     16  O   UNL d   1      40.029  -9.559  -9.345  0.00  0.00    -0.261 OA
ATOM     17  C   UNL d   1      39.740 -10.875  -8.838  0.00  0.00     0.240 C 
ENDBRANCH  15  16
BRANCH  14  18
ATOM     18  C   UNL d   1      37.042  -7.879 -10.503  0.00  0.00     0.102 A 
ATOM     19  N   UNL d   1      35.978  -8.710 -10.832  0.00  0.00    -0.222 NA
ATOM     20  C   UNL d   1      35.089  -8.054 -11.533  0.00  0.00     0.164 A 
ATOM     21  S   UNL d   1      35.502  -6.439 -11.933  0.00  0.00    -0.062 SA
ATOM     22  C   UNL d   1      36.964  -6.612 -11.061  0.00  0.00     0.087 A 
BRANCH  20  23
ATOM     23  N   UNL d   1      33.927  -8.596 -11.924  0.00  0.00    -0.378 N 
ATOM     24  H   UNL d   1      33.374  -8.125 -12.627  0.00  0.00     0.158 HD
ATOM     25  H   UNL d   1      33.888  -9.608 -11.942  0.00  0.00     0.158 HD
ENDBRANCH  20  23
ENDBRANCH  14  18
ENDBRANCH  11  14
ENDBRANCH   5  10
BRANCH   7  26
ATOM     26  C   UNL d   1      39.588  -6.770  -1.714  0.00  0.00     0.194 C 
ATOM     27  OXT UNL d   1      40.789  -6.998  -1.647  0.00  0.00    -0.645 OA
BRANCH  26  28
ATOM     28  O   UNL d   1      39.026  -5.779  -1.004  0.00  0.00    -0.772 OA
ATOM     29  H   UNL d   1      38.792  -6.002  -0.079  0.00  0.00     0.167 HD
ENDBRANCH  26  28
ENDBRANCH   7  26
BRANCH   8  30
ATOM     30  C   UNL d   1      38.200  -9.034  -0.339  0.00  0.00     0.216 C 
BRANCH  30  31
ATOM     31  O   UNL d   1      37.619  -8.069   0.553  0.00  0.00    -0.317 OA
BRANCH  31  32
ATOM     32  C   UNL d   1      38.306  -7.815   1.696  0.00  0.00     0.255 C 
ATOM     33  O   UNL d   1      39.247  -7.043   1.804  0.00  0.00    -0.266 OA
ATOM     34  C   UNL d   1      37.730  -8.611   2.828  0.00  0.00     0.126 C 
ENDBRANCH  31  32
ENDBRANCH  30  31
ENDBRANCH   8  30
TORSDOF 10
ENDMDL
MODEL 7
REMARK VINA RESULT:      -7.1      3.105      4.504
REMARK  10 active torsions:
REMARK  status: ('A' for Active; 'I' for Inactive)
REMARK    1  A    between atoms: O_4  and  C_21 
REMARK    2  A    between atoms: O_4  and  C_26 
REMARK    3  A    between atoms: O_5  and  C_22 
REMARK    4  A    between atoms: O_8  and  N_12 
REMARK    5  A    between atoms: CA_16  and  N_11 
REMARK       I    between atoms: N_11  and  C_23 
REMARK    6  A    between atoms: N_14  and  C_29 
REMARK    7  A    between atoms: CA_18  and  C_22 
REMARK    8  A    between atoms: C_19  and  C_21 
REMARK    9  A    between atoms: C_23  and  C_24 
REMARK   10  A    between atoms: C_24  and  C_25 
ROOT
ATOM      1  S   UNL d   1      38.106  -9.405  -3.455  0.00  0.00    -0.136 SA
ATOM      2  O   UNL d   1      41.757  -7.447  -3.489  0.00  0.00    -0.271 OA
ATOM      3  N   UNL d   1      39.574  -7.322  -2.690  0.00  0.00    -0.293 N 
ATOM      4  C   UNL d   1      38.494  -7.635  -3.623  0.00  0.00     0.187 C 
ATOM      5  CA  UNL d   1      39.501  -7.210  -4.753  0.00  0.00     0.211 C 
ATOM      6  C   UNL d   1      40.564  -7.390  -3.626  0.00  0.00     0.251 C 
ATOM      7  CA  UNL d   1      39.572  -7.671  -1.356  0.00  0.00     0.117 C 
ATOM      8  C   UNL d   1      38.658  -8.556  -0.857  0.00  0.00    -0.013 C 
ATOM      9  C   UNL d   1      37.613  -9.247  -1.706  0.00  0.00     0.115 C 
ENDROOT
BRANCH   5  10
ATOM     10  N   UNL d   1      39.470  -7.982  -6.046  0.00  0.00    -0.339 N 
ATOM     11  C   UNL d   1      38.756  -7.399  -7.091  0.00  0.00     0.275 C 
ATOM     12  O   UNL d   1      38.182  -6.323  -6.919  0.00  0.00    -0.266 OA
ATOM     13  H   UNL d   1      40.079  -8.769  -6.246  0.00  0.00     0.163 HD
BRANCH  11  14
ATOM     14  C   UNL d   1      38.630  -8.064  -8.466  0.00  0.00     0.180 C 
ATOM     15  N   UNL d   1      39.027  -9.240  -8.850  0.00  0.00    -0.126 NA
BRANCH  15  16
ATOM     16  O   UNL d   1      39.653 -10.047  -7.900  0.00  0.00    -0.261 OA
ATOM     17  C   UNL d   1      40.797 -10.625  -8.556  0.00  0.00     0.240 C 
ENDBRANCH  15  16
BRANCH  14  18
ATOM     18  C   UNL d   1      38.095  -7.234  -9.555  0.00  0.00     0.102 A 
ATOM     19  N   UNL d   1      38.864  -6.261 -10.181  0.00  0.00    -0.222 NA
ATOM     20  C   UNL d   1      38.225  -5.766 -11.209  0.00  0.00     0.164 A 
ATOM     21  S   UNL d   1      36.630  -6.349 -11.442  0.00  0.00    -0.062 SA
ATOM     22  C   UNL d   1      36.824  -7.381 -10.091  0.00  0.00     0.087 A 
BRANCH  20  23
ATOM     23  N   UNL d   1      38.765  -4.858 -12.035  0.00  0.00    -0.378 N 
ATOM     24  H   UNL d   1      39.753  -4.653 -11.965  0.00  0.00     0.158 HD
ATOM     25  H   UNL d   1      38.373  -4.812 -12.967  0.00  0.00     0.158 HD
ENDBRANCH  20  23
ENDBRANCH  14  18
ENDBRANCH  11  14
ENDBRANCH   5  10
BRANCH   7  26
ATOM     26  C   UNL d   1      40.526  -6.938  -0.427  0.00  0.00     0.194 C 
ATOM     27  OXT UNL d   1      40.271  -5.850   0.072  0.00  0.00    -0.645 OA
BRANCH  26  28
ATOM     28  O   UNL d   1      41.743  -7.492  -0.306  0.00  0.00    -0.772 OA
ATOM     29  H   UNL d   1      42.166  -7.771  -1.146  0.00  0.00     0.167 HD
ENDBRANCH  26  28
ENDBRANCH   7  26
BRANCH   8  30
ATOM     30  C   UNL d   1      38.626  -9.010   0.595  0.00  0.00     0.216 C 
BRANCH  30  31
ATOM     31  O   UNL d   1      37.834  -8.107   1.382  0.00  0.00    -0.317 OA
BRANCH  31  32
ATOM     32  C   UNL d   1      38.140  -8.034   2.704  0.00  0.00     0.255 C 
ATOM     33  O   UNL d   1      39.214  -7.682   3.167  0.00  0.00    -0.266 OA
ATOM     34  C   UNL d   1      36.953  -8.434   3.528  0.00  0.00     0.126 C 
ENDBRANCH  31  32
ENDBRANCH  30  31
ENDBRANCH   8  30
TORSDOF 10
ENDMDL
MODEL 8
REMARK VINA RESULT:      -7.1     14.777     18.747
REMARK  10 active torsions:
REMARK  status: ('A' for Active; 'I' for Inactive)
REMARK    1  A    between atoms: O_4  and  C_21 
REMARK    2  A    between atoms: O_4  and  C_26 
REMARK    3  A    between atoms: O_5  and  C_22 
REMARK    4  A    between atoms: O_8  and  N_12 
REMARK    5  A    between atoms: CA_16  and  N_11 
REMARK       I    between atoms: N_11  and  C_23 
REMARK    6  A    between atoms: N_14  and  C_29 
REMARK    7  A    between atoms: CA_18  and  C_22 
REMARK    8  A    between atoms: C_19  and  C_21 
REMARK    9  A    between atoms: C_23  and  C_24 
REMARK   10  A    between atoms: C_24  and  C_25 
ROOT
ATOM      1  S   UNL d   1      36.922 -12.365  11.880  0.00  0.00    -0.136 SA
ATOM      2  O   UNL d   1      37.895  -8.963  14.036  0.00  0.00    -0.271 OA
ATOM      3  N   UNL d   1      38.207 -10.037  11.995  0.00  0.00    -0.293 N 
ATOM      4  C   UNL d   1      38.500 -11.469  12.022  0.00  0.00     0.187 C 
ATOM      5  CA  UNL d   1      39.067 -11.208  13.465  0.00  0.00     0.211 C 
ATOM      6  C   UNL d   1      38.261  -9.878  13.348  0.00  0.00     0.251 C 
ATOM      7  CA  UNL d   1      37.411  -9.427  11.049  0.00  0.00     0.117 C 
ATOM      8  C   UNL d   1      36.634 -10.160  10.197  0.00  0.00    -0.013 C 
ATOM      9  C   UNL d   1      36.546 -11.671  10.236  0.00  0.00     0.115 C 
ENDROOT
BRANCH   5  10
ATOM     10  N   UNL d   1      38.839 -12.270  14.509  0.00  0.00    -0.339 N 
ATOM     11  C   UNL d   1      39.963 -12.996  14.900  0.00  0.00     0.275 C 
ATOM     12  O   UNL d   1      41.056 -12.764  14.382  0.00  0.00    -0.266 OA
ATOM     13  H   UNL d   1      37.990 -12.344  15.060  0.00  0.00     0.163 HD
BRANCH  11  14
ATOM     14  C   UNL d   1      39.891 -14.111  15.949  0.00  0.00     0.180 C 
ATOM     15  N   UNL d   1      39.245 -14.140  17.076  0.00  0.00    -0.126 NA
BRANCH  15  16
ATOM     16  O   UNL d   1      38.486 -13.017  17.409  0.00  0.00    -0.261 OA
ATOM     17  C   UNL d   1      38.854 -12.669  18.756  0.00  0.00     0.240 C 
ENDBRANCH  15  16
BRANCH  14  18
ATOM     18  C   UNL d   1      40.761 -15.277  15.735  0.00  0.00     0.102 A 
ATOM     19  N   UNL d   1      41.008 -15.784  14.465  0.00  0.00    -0.222 NA
ATOM     20  C   UNL d   1      41.923 -16.717  14.516  0.00  0.00     0.164 A 
ATOM     21  S   UNL d   1      42.480 -17.124  16.086  0.00  0.00    -0.062 SA
ATOM     22  C   UNL d   1      41.452 -15.926  16.746  0.00  0.00     0.087 A 
BRANCH  20  23
ATOM     23  N   UNL d   1      42.403 -17.328  13.424  0.00  0.00    -0.378 N 
ATOM     24  H   UNL d   1      41.970 -18.184  13.105  0.00  0.00     0.158 HD
ATOM     25  H   UNL d   1      42.765 -16.723  12.696  0.00  0.00     0.158 HD
ENDBRANCH  20  23
ENDBRANCH  14  18
ENDBRANCH  11  14
ENDBRANCH   5  10
BRANCH   7  26
ATOM     26  C   UNL d   1      37.529  -7.920  10.885  0.00  0.00     0.194 C 
ATOM     27  OXT UNL d   1      38.334  -7.388  10.132  0.00  0.00    -0.645 OA
BRANCH  26  28
ATOM     28  O   UNL d   1      36.790  -7.195  11.740  0.00  0.00    -0.772 OA
ATOM     29  H   UNL d   1      35.819  -7.262  11.623  0.00  0.00     0.167 HD
ENDBRANCH  26  28
ENDBRANCH   7  26
BRANCH   8  30
ATOM     30  C   UNL d   1      35.708  -9.546   9.158  0.00  0.00     0.216 C 
BRANCH  30  31
ATOM     31  O   UNL d   1      35.757 -10.302   7.937  0.00  0.00    -0.317 OA
BRANCH  31  32
ATOM     32  C   UNL d   1      35.756  -9.584   6.784  0.00  0.00     0.255 C 
ATOM     33  O   UNL d   1      35.039  -9.794   5.817  0.00  0.00    -0.266 OA
ATOM     34  C   UNL d   1      36.756  -8.472   6.871  0.00  0.00     0.126 C 
ENDBRANCH  31  32
ENDBRANCH  30  31
ENDBRANCH   8  30
TORSDOF 10
ENDMDL
MODEL 9
REMARK VINA RESULT:      -7.0      4.415      9.152
REMARK  10 active torsions:
REMARK  status: ('A' for Active; 'I' for Inactive)
REMARK    1  A    between atoms: O_4  and  C_21 
REMARK    2  A    between atoms: O_4  and  C_26 
REMARK    3  A    between atoms: O_5  and  C_22 
REMARK    4  A    between atoms: O_8  and  N_12 
REMARK    5  A    between atoms: CA_16  and  N_11 
REMARK       I    between atoms: N_11  and  C_23 
REMARK    6  A    between atoms: N_14  and  C_29 
REMARK    7  A    between atoms: CA_18  and  C_22 
REMARK    8  A    between atoms: C_19  and  C_21 
REMARK    9  A    between atoms: C_23  and  C_24 
REMARK   10  A    between atoms: C_24  and  C_25 
ROOT
ATOM      1  S   UNL d   1      38.900  -6.975  -5.946  0.00  0.00    -0.136 SA
ATOM      2  O   UNL d   1      42.859  -7.948  -6.683  0.00  0.00    -0.271 OA
ATOM      3  N   UNL d   1      40.670  -8.696  -6.939  0.00  0.00    -0.293 N 
ATOM      4  C   UNL d   1      39.773  -8.565  -5.793  0.00  0.00     0.187 C 
ATOM      5  CA  UNL d   1      41.075  -8.605  -4.914  0.00  0.00     0.211 C 
ATOM      6  C   UNL d   1      41.783  -8.285  -6.267  0.00  0.00     0.251 C 
ATOM      7  CA  UNL d   1      40.288  -8.501  -8.250  0.00  0.00     0.117 C 
ATOM      8  C   UNL d   1      39.086  -7.929  -8.559  0.00  0.00    -0.013 C 
ATOM      9  C   UNL d   1      38.103  -7.435  -7.521  0.00  0.00     0.115 C 
ENDROOT
BRANCH   5  10
ATOM     10  N   UNL d   1      41.118  -7.732  -3.687  0.00  0.00    -0.339 N 
ATOM     11  C   UNL d   1      41.087  -8.397  -2.462  0.00  0.00     0.275 C 
ATOM     12  O   UNL d   1      41.008  -9.626  -2.430  0.00  0.00    -0.266 OA
ATOM     13  H   UNL d   1      41.359  -6.747  -3.705  0.00  0.00     0.163 HD
BRANCH  11  14
ATOM     14  C   UNL d   1      41.120  -7.648  -1.125  0.00  0.00     0.180 C 
ATOM     15  N   UNL d   1      42.139  -7.339  -0.380  0.00  0.00    -0.126 NA
BRANCH  15  16
ATOM     16  O   UNL d   1      43.403  -7.717  -0.835  0.00  0.00    -0.261 OA
ATOM     17  C   UNL d   1      44.339  -6.815  -0.217  0.00  0.00     0.240 C 
ENDBRANCH  15  16
BRANCH  14  18
ATOM     18  C   UNL d   1      39.821  -7.326  -0.516  0.00  0.00     0.102 A 
ATOM     19  N   UNL d   1      39.447  -7.831   0.723  0.00  0.00    -0.222 NA
ATOM     20  C   UNL d   1      38.325  -7.286   1.118  0.00  0.00     0.164 A 
ATOM     21  S   UNL d   1      37.589  -6.213   0.002  0.00  0.00    -0.062 SA
ATOM     22  C   UNL d   1      38.895  -6.459  -1.075  0.00  0.00     0.087 A 
BRANCH  20  23
ATOM     23  N   UNL d   1      37.772  -7.541   2.312  0.00  0.00    -0.378 N 
ATOM     24  H   UNL d   1      38.355  -7.534   3.138  0.00  0.00     0.158 HD
ATOM     25  H   UNL d   1      36.822  -7.216   2.444  0.00  0.00     0.158 HD
ENDBRANCH  20  23
ENDBRANCH  14  18
ENDBRANCH  11  14
ENDBRANCH   5  10
BRANCH   7  26
ATOM     26  C   UNL d   1      41.180  -9.067  -9.343  0.00  0.00     0.194 C 
ATOM     27  OXT UNL d   1      41.136 -10.235  -9.706  0.00  0.00    -0.645 OA
BRANCH  26  28
ATOM     28  O   UNL d   1      42.136  -8.235  -9.786  0.00  0.00    -0.772 OA
ATOM     29  H   UNL d   1      41.982  -7.283  -9.611  0.00  0.00     0.167 HD
ENDBRANCH  26  28
ENDBRANCH   7  26
BRANCH   8  30
ATOM     30  C   UNL d   1      38.623  -7.653  -9.982  0.00  0.00     0.216 C 
BRANCH  30  31
ATOM     31  O   UNL d   1      38.940  -6.303 -10.357  0.00  0.00    -0.317 OA
BRANCH  31  32
ATOM     32  C   UNL d   1      39.604  -6.144 -11.531  0.00  0.00     0.255 C 
ATOM     33  O   UNL d   1      40.455  -6.900 -11.975  0.00  0.00    -0.266 OA
ATOM     34  C   UNL d   1      39.129  -4.904 -12.225  0.00  0.00     0.126 C 
ENDBRANCH  31  32
ENDBRANCH  30  31
ENDBRANCH   8  30
TORSDOF 10
ENDMDL
