@<TRIPOS>MOLECULE
SAL
 16 16 0 0 0
SMALL
GASTEIGER

@<TRIPOS>ATOM
      1 C           0.9248   -0.0176    0.0409 C.2     1  UNL1        0.3404
      2 O           0.2494    0.9942    0.0264 O.2     1  UNL1       -0.2450
      3 O           0.3428   -1.2352    0.0505 O.3     1  UNL1       -0.4770
      4 C           2.4065   -0.0821    0.0548 C.ar    1  UNL1        0.1001
      5 C           3.1355   -1.2793    0.0696 C.ar    1  UNL1        0.1308
      6 C           4.5299   -1.2570    0.0925 C.ar    1  UNL1       -0.0194
      7 C           5.2102   -0.0394    0.0968 C.ar    1  UNL1       -0.0583
      8 C           4.4971    1.1580    0.0771 C.ar    1  UNL1       -0.0608
      9 C           3.1003    1.1378    0.0562 C.ar    1  UNL1       -0.0442
     10 O           2.5598   -2.5207    0.0625 O.3     1  UNL1       -0.5059
     11 H          -0.6168   -1.0174    0.0504 H       1  UNL1        0.2954
     12 H           5.0855   -2.1913    0.1069 H       1  UNL1        0.0654
     13 H           6.2972   -0.0263    0.1155 H       1  UNL1        0.0619
     14 H           5.0271    2.1074    0.0788 H       1  UNL1        0.0618
     15 H           2.5550    2.0801    0.0426 H       1  UNL1        0.0627
     16 H           1.5878   -2.3930    0.0450 H       1  UNL1        0.2922
@<TRIPOS>BOND
     1     1     2    2
     2     1     3    1
     3     1     4    1
     4     3    11    1
     5     4     5   ar
     6     4     9   ar
     7     5     6   ar
     8     5    10    1
     9     6     7   ar
    10     6    12    1
    11     7     8   ar
    12     7    13    1
    13     8     9   ar
    14     8    14    1
    15     9    15    1
    16    10    16    1
