MODEL 1
REMARK VINA RESULT:      -4.0      0.000      0.000
REMARK  2 active torsions:
REMARK  status: ('A' for Active; 'I' for Inactive)
REMARK    1  A    between atoms: C_1  and  O_3 
REMARK    2  A    between atoms: C_1  and  C_4 
ROOT
ATOM      1  C   UNL d   1       7.681 -10.749 -27.577  0.00  0.00     0.213 C 
ATOM      2  O   UNL d   1       8.669 -11.225 -27.056  0.00  0.00    -0.644 OA
ENDROOT
BRANCH   1   3
ATOM      3  O   UNL d   1       7.681  -9.545 -28.161  0.00  0.00    -0.771 OA
ATOM      4  H   UNL d   1       8.353  -9.596 -28.869  0.00  0.00     0.168 HD
ENDBRANCH   1   3
BRANCH   1   5
ATOM      5  C   UNL d   1       6.316 -11.455 -27.635  0.00  0.00     0.218 C 
ATOM      6  O   UNL d   1       5.767 -11.683 -28.708  0.00  0.00    -0.286 OA
ATOM      7  C   UNL d   1       5.720 -11.836 -26.313  0.00  0.00     0.103 C 
ENDBRANCH   1   5
TORSDOF 2
ENDMDL
MODEL 2
REMARK VINA RESULT:      -4.0      3.749      4.376
REMARK  2 active torsions:
REMARK  status: ('A' for Active; 'I' for Inactive)
REMARK    1  A    between atoms: C_1  and  O_3 
REMARK    2  A    between atoms: C_1  and  C_4 
ROOT
ATOM      1  C   UNL d   1       9.416  -9.193 -24.421  0.00  0.00     0.213 C 
ATOM      2  O   UNL d   1      10.152  -8.916 -25.347  0.00  0.00    -0.644 OA
ENDROOT
BRANCH   1   3
ATOM      3  O   UNL d   1       9.193  -8.357 -23.401  0.00  0.00    -0.771 OA
ATOM      4  H   UNL d   1       8.272  -8.524 -23.121  0.00  0.00     0.168 HD
ENDBRANCH   1   3
BRANCH   1   5
ATOM      5  C   UNL d   1       8.654 -10.523 -24.299  0.00  0.00     0.218 C 
ATOM      6  O   UNL d   1       8.195 -10.892 -23.223  0.00  0.00    -0.286 OA
ATOM      7  C   UNL d   1       8.516 -11.316 -25.564  0.00  0.00     0.103 C 
ENDBRANCH   1   5
TORSDOF 2
ENDMDL
MODEL 3
REMARK VINA RESULT:      -4.0      1.128      2.579
REMARK  2 active torsions:
REMARK  status: ('A' for Active; 'I' for Inactive)
REMARK    1  A    between atoms: C_1  and  O_3 
REMARK    2  A    between atoms: C_1  and  C_4 
ROOT
ATOM      1  C   UNL d   1       6.149 -11.684 -27.619  0.00  0.00     0.213 C 
ATOM      2  O   UNL d   1       5.489 -12.120 -26.698  0.00  0.00    -0.644 OA
ENDROOT
BRANCH   1   3
ATOM      3  O   UNL d   1       5.725 -11.711 -28.888  0.00  0.00    -0.771 OA
ATOM      4  H   UNL d   1       5.703 -12.655 -29.137  0.00  0.00     0.168 HD
ENDBRANCH   1   3
BRANCH   1   5
ATOM      5  C   UNL d   1       7.541 -11.052 -27.454  0.00  0.00     0.218 C 
ATOM      6  O   UNL d   1       7.867 -10.062 -28.100  0.00  0.00    -0.286 OA
ATOM      7  C   UNL d   1       8.450 -11.721 -26.466  0.00  0.00     0.103 C 
ENDBRANCH   1   5
TORSDOF 2
ENDMDL
MODEL 4
REMARK VINA RESULT:      -3.9      1.462      2.041
REMARK  2 active torsions:
REMARK  status: ('A' for Active; 'I' for Inactive)
REMARK    1  A    between atoms: C_1  and  O_3 
REMARK    2  A    between atoms: C_1  and  C_4 
ROOT
ATOM      1  C   UNL d   1       6.701 -11.389 -27.894  0.00  0.00     0.213 C 
ATOM      2  O   UNL d   1       7.702 -10.764 -28.181  0.00  0.00    -0.644 OA
ENDROOT
BRANCH   1   3
ATOM      3  O   UNL d   1       5.805 -11.777 -28.808  0.00  0.00    -0.771 OA
ATOM      4  H   UNL d   1       5.323 -10.966 -29.063  0.00  0.00     0.168 HD
ENDBRANCH   1   3
BRANCH   1   5
ATOM      5  C   UNL d   1       6.335 -11.813 -26.461  0.00  0.00     0.218 C 
ATOM      6  O   UNL d   1       5.194 -12.156 -26.176  0.00  0.00    -0.286 OA
ATOM      7  C   UNL d   1       7.453 -11.774 -25.462  0.00  0.00     0.103 C 
ENDBRANCH   1   5
TORSDOF 2
ENDMDL
MODEL 5
REMARK VINA RESULT:      -3.9      3.798      4.896
REMARK  2 active torsions:
REMARK  status: ('A' for Active; 'I' for Inactive)
REMARK    1  A    between atoms: C_1  and  O_3 
REMARK    2  A    between atoms: C_1  and  C_4 
ROOT
ATOM      1  C   UNL d   1       8.218 -11.082 -24.015  0.00  0.00     0.213 C 
ATOM      2  O   UNL d   1       7.715 -11.771 -23.151  0.00  0.00    -0.644 OA
ENDROOT
BRANCH   1   3
ATOM      3  O   UNL d   1       8.207 -11.421 -25.309  0.00  0.00    -0.771 OA
ATOM      4  H   UNL d   1       7.556 -12.147 -25.384  0.00  0.00     0.168 HD
ENDBRANCH   1   3
BRANCH   1   5
ATOM      5  C   UNL d   1       8.926  -9.744 -23.740  0.00  0.00     0.218 C 
ATOM      6  O   UNL d   1       8.845  -9.198 -22.646  0.00  0.00    -0.286 OA
ATOM      7  C   UNL d   1       9.706  -9.170 -24.885  0.00  0.00     0.103 C 
ENDBRANCH   1   5
TORSDOF 2
ENDMDL
MODEL 6
REMARK VINA RESULT:      -3.8      1.585      2.871
REMARK  2 active torsions:
REMARK  status: ('A' for Active; 'I' for Inactive)
REMARK    1  A    between atoms: C_1  and  O_3 
REMARK    2  A    between atoms: C_1  and  C_4 
ROOT
ATOM      1  C   UNL d   1       5.908 -11.306 -27.574  0.00  0.00     0.213 C 
ATOM      2  O   UNL d   1       5.810 -11.799 -28.679  0.00  0.00    -0.644 OA
ENDROOT
BRANCH   1   3
ATOM      3  O   UNL d   1       5.299 -11.816 -26.498  0.00  0.00    -0.771 OA
ATOM      4  H   UNL d   1       4.347 -11.633 -26.624  0.00  0.00     0.168 HD
ENDBRANCH   1   3
BRANCH   1   5
ATOM      5  C   UNL d   1       6.735 -10.045 -27.268  0.00  0.00     0.218 C 
ATOM      6  O   UNL d   1       7.960 -10.070 -27.297  0.00  0.00    -0.286 OA
ATOM      7  C   UNL d   1       5.948  -8.812 -26.938  0.00  0.00     0.103 C 
ENDBRANCH   1   5
TORSDOF 2
ENDMDL
MODEL 7
REMARK VINA RESULT:      -3.8      3.337      4.355
REMARK  2 active torsions:
REMARK  status: ('A' for Active; 'I' for Inactive)
REMARK    1  A    between atoms: C_1  and  O_3 
REMARK    2  A    between atoms: C_1  and  C_4 
ROOT
ATOM      1  C   UNL d   1       6.121 -11.735 -24.811  0.00  0.00     0.213 C 
ATOM      2  O   UNL d   1       5.708 -11.269 -25.853  0.00  0.00    -0.644 OA
ENDROOT
BRANCH   1   3
ATOM      3  O   UNL d   1       5.713 -12.918 -24.337  0.00  0.00    -0.771 OA
ATOM      4  H   UNL d   1       5.930 -13.568 -25.033  0.00  0.00     0.168 HD
ENDBRANCH   1   3
BRANCH   1   5
ATOM      5  C   UNL d   1       7.152 -11.037 -23.908  0.00  0.00     0.218 C 
ATOM      6  O   UNL d   1       7.904 -11.686 -23.189  0.00  0.00    -0.286 OA
ATOM      7  C   UNL d   1       7.169  -9.539 -23.971  0.00  0.00     0.103 C 
ENDBRANCH   1   5
TORSDOF 2
ENDMDL
MODEL 8
REMARK VINA RESULT:      -3.8      3.010      3.683
REMARK  2 active torsions:
REMARK  status: ('A' for Active; 'I' for Inactive)
REMARK    1  A    between atoms: C_1  and  O_3 
REMARK    2  A    between atoms: C_1  and  C_4 
ROOT
ATOM      1  C   UNL d   1       6.937 -11.837 -24.162  0.00  0.00     0.213 C 
ATOM      2  O   UNL d   1       7.576 -11.675 -23.143  0.00  0.00    -0.644 OA
ENDROOT
BRANCH   1   3
ATOM      3  O   UNL d   1       5.790 -12.524 -24.195  0.00  0.00    -0.771 OA
ATOM      4  H   UNL d   1       5.147 -11.940 -24.643  0.00  0.00     0.168 HD
ENDBRANCH   1   3
BRANCH   1   5
ATOM      5  C   UNL d   1       7.357 -11.282 -25.534  0.00  0.00     0.218 C 
ATOM      6  O   UNL d   1       6.646 -10.487 -26.139  0.00  0.00    -0.286 OA
ATOM      7  C   UNL d   1       8.670 -11.774 -26.065  0.00  0.00     0.103 C 
ENDBRANCH   1   5
TORSDOF 2
ENDMDL
MODEL 9
REMARK VINA RESULT:      -3.7      3.071      4.014
REMARK  2 active torsions:
REMARK  status: ('A' for Active; 'I' for Inactive)
REMARK    1  A    between atoms: C_1  and  O_3 
REMARK    2  A    between atoms: C_1  and  C_4 
ROOT
ATOM      1  C   UNL d   1       7.791 -11.086 -24.269  0.00  0.00     0.213 C 
ATOM      2  O   UNL d   1       8.025 -11.653 -23.222  0.00  0.00    -0.644 OA
ENDROOT
BRANCH   1   3
ATOM      3  O   UNL d   1       6.550 -10.917 -24.739  0.00  0.00    -0.771 OA
ATOM      4  H   UNL d   1       6.558 -10.055 -25.199  0.00  0.00     0.168 HD
ENDBRANCH   1   3
BRANCH   1   5
ATOM      5  C   UNL d   1       8.876 -10.492 -25.184  0.00  0.00     0.218 C 
ATOM      6  O   UNL d   1       9.153 -11.014 -26.258  0.00  0.00    -0.286 OA
ATOM      7  C   UNL d   1       9.555  -9.256 -24.676  0.00  0.00     0.103 C 
ENDBRANCH   1   5
TORSDOF 2
ENDMDL
