REMARK  2 active torsions:
REMARK  status: ('A' for Active; 'I' for Inactive)
REMARK    1  A    between atoms: C_1  and  O_3 
REMARK    2  A    between atoms: C_1  and  C_4 
ROOT
ATOM      1  C   UNL d   1       0.886  -0.001  -0.004  0.00  0.00     0.213 C 
ATOM      2  O   UNL d   1       0.232   0.995   0.228  0.00  0.00    -0.644 OA
ENDROOT
BRANCH   1   3
ATOM      3  O   UNL d   1       0.327  -1.185  -0.279  0.00  0.00    -0.771 OA
ATOM      4  H   UNL d   1      -0.638  -1.034  -0.244  0.00  0.00     0.168 HD
ENDBRANCH   1   3
BRANCH   1   5
ATOM      5  C   UNL d   1       2.424  -0.035  -0.012  0.00  0.00     0.218 C 
ATOM      6  O   UNL d   1       3.032  -1.072  -0.252  0.00  0.00    -0.286 OA
ATOM      7  C   UNL d   1       3.108   1.265   0.289  0.00  0.00     0.103 C 
ENDBRANCH   1   5
TORSDOF 2
