@<TRIPOS>MOLECULE
PYR
 10 9 0 0 0
SMALL
GASTEIGER

@<TRIPOS>ATOM
      1 C           0.8862   -0.0012   -0.0039 C.2     1  UNL1        0.3723
      2 O           0.2317    0.9950    0.2278 O.2     1  UNL1       -0.2419
      3 O           0.3274   -1.1852   -0.2794 O.3     1  UNL1       -0.4751
      4 C           2.4235   -0.0352   -0.0118 C.2     1  UNL1        0.2360
      5 O           3.0320   -1.0716   -0.2515 O.2     1  UNL1       -0.2854
      6 C           3.1084    1.2650    0.2888 C.3     1  UNL1        0.0052
      7 H          -0.6382   -1.0340   -0.2443 H       1  UNL1        0.2955
      8 H           2.8389    2.0139   -0.4597 H       1  UNL1        0.0311
      9 H           2.8389    1.6093    1.2902 H       1  UNL1        0.0311
     10 H           4.1913    1.1141    0.2539 H       1  UNL1        0.0311
@<TRIPOS>BOND
     1     1     2    2
     2     1     3    1
     3     1     4    1
     4     3     7    1
     5     4     5    2
     6     4     6    1
     7     6     8    1
     8     6     9    1
     9     6    10    1
