MODEL 1
REMARK VINA RESULT:      -6.1      0.000      0.000
REMARK  3 active torsions:
REMARK  status: ('A' for Active; 'I' for Inactive)
REMARK    1  A    between atoms: C_1  and  O_3 
REMARK    2  A    between atoms: C_1  and  C_4 
REMARK    3  A    between atoms: C_5  and  O_10 
ROOT
ATOM      1  C   UNL d   1       6.964 -10.622 -26.205  0.00  0.00     0.070 A 
ATOM      2  C   UNL d   1       6.197 -11.616 -25.582  0.00  0.00     0.082 A 
ATOM      3  C   UNL d   1       6.523 -12.064 -24.301  0.00  0.00     0.037 A 
ATOM      4  C   UNL d   1       7.623 -11.527 -23.632  0.00  0.00     0.003 A 
ATOM      5  C   UNL d   1       8.397 -10.543 -24.242  0.00  0.00     0.001 A 
ATOM      6  C   UNL d   1       8.070 -10.091 -25.523  0.00  0.00     0.021 A 
ENDROOT
BRANCH   1   7
ATOM      7  C   UNL d   1       6.676 -10.083 -27.555  0.00  0.00     0.178 C 
ATOM      8  O   UNL d   1       5.629 -10.189 -28.163  0.00  0.00    -0.646 OA
BRANCH   7   9
ATOM      9  O   UNL d   1       7.727  -9.433 -28.099  0.00  0.00    -0.773 OA
ATOM     10  H   UNL d   1       7.317  -8.937 -28.843  0.00  0.00     0.167 HD
ENDBRANCH   7   9
ENDBRANCH   1   7
BRANCH   2  11
ATOM     11  O   UNL d   1       5.106 -12.208 -26.158  0.00  0.00    -0.360 OA
ATOM     12  H   UNL d   1       5.287 -12.286 -27.119  0.00  0.00     0.217 HD
ENDBRANCH   2  11
TORSDOF 3
ENDMDL
MODEL 2
REMARK VINA RESULT:      -6.0      1.355      2.544
REMARK  3 active torsions:
REMARK  status: ('A' for Active; 'I' for Inactive)
REMARK    1  A    between atoms: C_1  and  O_3 
REMARK    2  A    between atoms: C_1  and  C_4 
REMARK    3  A    between atoms: C_5  and  O_10 
ROOT
ATOM      1  C   UNL d   1       7.183 -11.553 -26.385  0.00  0.00     0.070 A 
ATOM      2  C   UNL d   1       8.229 -11.057 -25.595  0.00  0.00     0.082 A 
ATOM      3  C   UNL d   1       8.220 -11.239 -24.211  0.00  0.00     0.037 A 
ATOM      4  C   UNL d   1       7.162 -11.914 -23.602  0.00  0.00     0.003 A 
ATOM      5  C   UNL d   1       6.113 -12.406 -24.376  0.00  0.00     0.001 A 
ATOM      6  C   UNL d   1       6.122 -12.227 -25.761  0.00  0.00     0.021 A 
ENDROOT
BRANCH   1   7
ATOM      7  C   UNL d   1       7.126 -11.413 -27.859  0.00  0.00     0.178 C 
ATOM      8  O   UNL d   1       8.051 -11.118 -28.590  0.00  0.00    -0.646 OA
BRANCH   7   9
ATOM      9  O   UNL d   1       5.895 -11.642 -28.363  0.00  0.00    -0.773 OA
ATOM     10  H   UNL d   1       5.499 -10.742 -28.393  0.00  0.00     0.167 HD
ENDBRANCH   7   9
ENDBRANCH   1   7
BRANCH   2  11
ATOM     11  O   UNL d   1       9.306 -10.377 -26.097  0.00  0.00    -0.360 OA
ATOM     12  H   UNL d   1      10.010 -11.036 -26.278  0.00  0.00     0.217 HD
ENDBRANCH   2  11
TORSDOF 3
ENDMDL
MODEL 3
REMARK VINA RESULT:      -6.0      1.700      3.169
REMARK  3 active torsions:
REMARK  status: ('A' for Active; 'I' for Inactive)
REMARK    1  A    between atoms: C_1  and  O_3 
REMARK    2  A    between atoms: C_1  and  C_4 
REMARK    3  A    between atoms: C_5  and  O_10 
ROOT
ATOM      1  C   UNL d   1       7.029 -11.048 -25.215  0.00  0.00     0.070 A 
ATOM      2  C   UNL d   1       7.986 -10.972 -24.195  0.00  0.00     0.082 A 
ATOM      3  C   UNL d   1       8.968  -9.981 -24.218  0.00  0.00     0.037 A 
ATOM      4  C   UNL d   1       9.007  -9.059 -25.264  0.00  0.00     0.003 A 
ATOM      5  C   UNL d   1       8.065  -9.128 -26.288  0.00  0.00     0.001 A 
ATOM      6  C   UNL d   1       7.079 -10.118 -26.265  0.00  0.00     0.021 A 
ENDROOT
BRANCH   1   7
ATOM      7  C   UNL d   1       5.946 -12.060 -25.257  0.00  0.00     0.178 C 
ATOM      8  O   UNL d   1       5.689 -12.874 -24.390  0.00  0.00    -0.646 OA
BRANCH   7   9
ATOM      9  O   UNL d   1       5.228 -12.018 -26.399  0.00  0.00    -0.773 OA
ATOM     10  H   UNL d   1       4.500 -11.395 -26.177  0.00  0.00     0.167 HD
ENDBRANCH   7   9
ENDBRANCH   1   7
BRANCH   2  11
ATOM     11  O   UNL d   1       8.036 -11.832 -23.131  0.00  0.00    -0.360 OA
ATOM     12  H   UNL d   1       7.388 -12.549 -23.303  0.00  0.00     0.217 HD
ENDBRANCH   2  11
TORSDOF 3
ENDMDL
MODEL 4
REMARK VINA RESULT:      -6.0      2.735      4.147
REMARK  3 active torsions:
REMARK  status: ('A' for Active; 'I' for Inactive)
REMARK    1  A    between atoms: C_1  and  O_3 
REMARK    2  A    between atoms: C_1  and  C_4 
REMARK    3  A    between atoms: C_5  and  O_10 
ROOT
ATOM      1  C   UNL d   1       7.393  -9.713 -24.624  0.00  0.00     0.070 A 
ATOM      2  C   UNL d   1       7.991  -9.972 -25.865  0.00  0.00     0.082 A 
ATOM      3  C   UNL d   1       7.460  -9.426 -27.035  0.00  0.00     0.037 A 
ATOM      4  C   UNL d   1       6.324  -8.619 -26.977  0.00  0.00     0.003 A 
ATOM      5  C   UNL d   1       5.717  -8.359 -25.750  0.00  0.00     0.001 A 
ATOM      6  C   UNL d   1       6.248  -8.902 -24.577  0.00  0.00     0.021 A 
ENDROOT
BRANCH   1   7
ATOM      7  C   UNL d   1       7.903 -10.243 -23.337  0.00  0.00     0.178 C 
ATOM      8  O   UNL d   1       8.275  -9.585 -22.385  0.00  0.00    -0.646 OA
BRANCH   7   9
ATOM      9  O   UNL d   1       7.934 -11.592 -23.298  0.00  0.00    -0.773 OA
ATOM     10  H   UNL d   1       7.217 -11.809 -22.661  0.00  0.00     0.167 HD
ENDBRANCH   7   9
ENDBRANCH   1   7
BRANCH   2  11
ATOM     11  O   UNL d   1       9.102 -10.754 -26.027  0.00  0.00    -0.360 OA
ATOM     12  H   UNL d   1       8.924 -11.367 -26.772  0.00  0.00     0.217 HD
ENDBRANCH   2  11
TORSDOF 3
ENDMDL
MODEL 5
REMARK VINA RESULT:      -5.9      1.900      3.480
REMARK  3 active torsions:
REMARK  status: ('A' for Active; 'I' for Inactive)
REMARK    1  A    between atoms: C_1  and  O_3 
REMARK    2  A    between atoms: C_1  and  C_4 
REMARK    3  A    between atoms: C_5  and  O_10 
ROOT
ATOM      1  C   UNL d   1       6.205 -10.769 -25.180  0.00  0.00     0.070 A 
ATOM      2  C   UNL d   1       5.831 -10.882 -26.526  0.00  0.00     0.082 A 
ATOM      3  C   UNL d   1       5.691  -9.743 -27.320  0.00  0.00     0.037 A 
ATOM      4  C   UNL d   1       5.918  -8.479 -26.775  0.00  0.00     0.003 A 
ATOM      5  C   UNL d   1       6.284  -8.353 -25.436  0.00  0.00     0.001 A 
ATOM      6  C   UNL d   1       6.428  -9.493 -24.641  0.00  0.00     0.021 A 
ENDROOT
BRANCH   1   7
ATOM      7  C   UNL d   1       6.388 -11.930 -24.276  0.00  0.00     0.178 C 
ATOM      8  O   UNL d   1       5.762 -12.972 -24.307  0.00  0.00    -0.646 OA
BRANCH   7   9
ATOM      9  O   UNL d   1       7.352 -11.731 -23.351  0.00  0.00    -0.773 OA
ATOM     10  H   UNL d   1       6.844 -11.418 -22.569  0.00  0.00     0.167 HD
ENDBRANCH   7   9
ENDBRANCH   1   7
BRANCH   2  11
ATOM     11  O   UNL d   1       5.580 -12.074 -27.150  0.00  0.00    -0.360 OA
ATOM     12  H   UNL d   1       6.275 -12.201 -27.830  0.00  0.00     0.217 HD
ENDBRANCH   2  11
TORSDOF 3
ENDMDL
MODEL 6
REMARK VINA RESULT:      -5.9      0.875      2.627
REMARK  3 active torsions:
REMARK  status: ('A' for Active; 'I' for Inactive)
REMARK    1  A    between atoms: C_1  and  O_3 
REMARK    2  A    between atoms: C_1  and  C_4 
REMARK    3  A    between atoms: C_5  and  O_10 
ROOT
ATOM      1  C   UNL d   1       6.894 -10.572 -26.005  0.00  0.00     0.070 A 
ATOM      2  C   UNL d   1       7.872  -9.625 -26.339  0.00  0.00     0.082 A 
ATOM      3  C   UNL d   1       8.836  -9.243 -25.406  0.00  0.00     0.037 A 
ATOM      4  C   UNL d   1       8.830  -9.799 -24.127  0.00  0.00     0.003 A 
ATOM      5  C   UNL d   1       7.860 -10.737 -23.780  0.00  0.00     0.001 A 
ATOM      6  C   UNL d   1       6.895 -11.123 -24.714  0.00  0.00     0.021 A 
ENDROOT
BRANCH   1   7
ATOM      7  C   UNL d   1       5.845 -11.040 -26.942  0.00  0.00     0.178 C 
ATOM      8  O   UNL d   1       5.579 -10.554 -28.024  0.00  0.00    -0.646 OA
BRANCH   7   9
ATOM      9  O   UNL d   1       5.159 -12.105 -26.476  0.00  0.00    -0.773 OA
ATOM     10  H   UNL d   1       5.854 -12.632 -26.021  0.00  0.00     0.167 HD
ENDBRANCH   7   9
ENDBRANCH   1   7
BRANCH   2  11
ATOM     11  O   UNL d   1       7.957  -9.018 -27.563  0.00  0.00    -0.360 OA
ATOM     12  H   UNL d   1       7.201  -8.398 -27.637  0.00  0.00     0.217 HD
ENDBRANCH   2  11
TORSDOF 3
ENDMDL
MODEL 7
REMARK VINA RESULT:      -5.8      0.920      2.168
REMARK  3 active torsions:
REMARK  status: ('A' for Active; 'I' for Inactive)
REMARK    1  A    between atoms: C_1  and  O_3 
REMARK    2  A    between atoms: C_1  and  C_4 
REMARK    3  A    between atoms: C_5  and  O_10 
ROOT
ATOM      1  C   UNL d   1       6.937 -10.619 -26.179  0.00  0.00     0.070 A 
ATOM      2  C   UNL d   1       8.052 -10.208 -25.437  0.00  0.00     0.082 A 
ATOM      3  C   UNL d   1       8.305 -10.752 -24.177  0.00  0.00     0.037 A 
ATOM      4  C   UNL d   1       7.443 -11.709 -23.643  0.00  0.00     0.003 A 
ATOM      5  C   UNL d   1       6.327 -12.123 -24.368  0.00  0.00     0.001 A 
ATOM      6  C   UNL d   1       6.074 -11.581 -25.631  0.00  0.00     0.021 A 
ENDROOT
BRANCH   1   7
ATOM      7  C   UNL d   1       6.607 -10.101 -27.527  0.00  0.00     0.178 C 
ATOM      8  O   UNL d   1       5.509 -10.104 -28.051  0.00  0.00    -0.646 OA
BRANCH   7   9
ATOM      9  O   UNL d   1       7.679  -9.601 -28.177  0.00  0.00    -0.773 OA
ATOM     10  H   UNL d   1       8.165  -9.126 -27.466  0.00  0.00     0.167 HD
ENDBRANCH   7   9
ENDBRANCH   1   7
BRANCH   2  11
ATOM     11  O   UNL d   1       8.951  -9.271 -25.870  0.00  0.00    -0.360 OA
ATOM     12  H   UNL d   1       9.633  -9.174 -25.172  0.00  0.00     0.217 HD
ENDBRANCH   2  11
TORSDOF 3
ENDMDL
MODEL 8
REMARK VINA RESULT:      -5.8      2.398      3.680
REMARK  3 active torsions:
REMARK  status: ('A' for Active; 'I' for Inactive)
REMARK    1  A    between atoms: C_1  and  O_3 
REMARK    2  A    between atoms: C_1  and  C_4 
REMARK    3  A    between atoms: C_5  and  O_10 
ROOT
ATOM      1  C   UNL d   1       7.929 -10.469 -24.462  0.00  0.00     0.070 A 
ATOM      2  C   UNL d   1       7.739 -10.496 -25.851  0.00  0.00     0.082 A 
ATOM      3  C   UNL d   1       6.865 -11.419 -26.427  0.00  0.00     0.037 A 
ATOM      4  C   UNL d   1       6.176 -12.326 -25.624  0.00  0.00     0.003 A 
ATOM      5  C   UNL d   1       6.360 -12.313 -24.242  0.00  0.00     0.001 A 
ATOM      6  C   UNL d   1       7.233 -11.388 -23.663  0.00  0.00     0.021 A 
ENDROOT
BRANCH   1   7
ATOM      7  C   UNL d   1       8.827  -9.513 -23.772  0.00  0.00     0.178 C 
ATOM      8  O   UNL d   1       9.646  -8.786 -24.300  0.00  0.00    -0.646 OA
BRANCH   7   9
ATOM      9  O   UNL d   1       8.667  -9.512 -22.431  0.00  0.00    -0.773 OA
ATOM     10  H   UNL d   1       8.374  -8.591 -22.246  0.00  0.00     0.167 HD
ENDBRANCH   7   9
ENDBRANCH   1   7
BRANCH   2  11
ATOM     11  O   UNL d   1       8.373  -9.654 -26.723  0.00  0.00    -0.360 OA
ATOM     12  H   UNL d   1       8.856 -10.210 -27.370  0.00  0.00     0.217 HD
ENDBRANCH   2  11
TORSDOF 3
ENDMDL
MODEL 9
REMARK VINA RESULT:      -5.8      2.221      3.202
REMARK  3 active torsions:
REMARK  status: ('A' for Active; 'I' for Inactive)
REMARK    1  A    between atoms: C_1  and  O_3 
REMARK    2  A    between atoms: C_1  and  C_4 
REMARK    3  A    between atoms: C_5  and  O_10 
ROOT
ATOM      1  C   UNL d   1       6.572  -9.978 -26.386  0.00  0.00     0.070 A 
ATOM      2  C   UNL d   1       7.310 -10.330 -27.525  0.00  0.00     0.082 A 
ATOM      3  C   UNL d   1       7.380 -11.660 -27.940  0.00  0.00     0.037 A 
ATOM      4  C   UNL d   1       6.718 -12.653 -27.218  0.00  0.00     0.003 A 
ATOM      5  C   UNL d   1       5.986 -12.317 -26.081  0.00  0.00     0.001 A 
ATOM      6  C   UNL d   1       5.912 -10.985 -25.666  0.00  0.00     0.021 A 
ENDROOT
BRANCH   1   7
ATOM      7  C   UNL d   1       6.438  -8.588 -25.889  0.00  0.00     0.178 C 
ATOM      8  O   UNL d   1       6.396  -8.242 -24.724  0.00  0.00    -0.646 OA
BRANCH   7   9
ATOM      9  O   UNL d   1       6.351  -7.678 -26.882  0.00  0.00    -0.773 OA
ATOM     10  H   UNL d   1       5.680  -8.073 -27.483  0.00  0.00     0.167 HD
ENDBRANCH   7   9
ENDBRANCH   1   7
BRANCH   2  11
ATOM     11  O   UNL d   1       7.999  -9.431 -28.294  0.00  0.00    -0.360 OA
ATOM     12  H   UNL d   1       8.814  -9.191 -27.805  0.00  0.00     0.217 HD
ENDBRANCH   2  11
TORSDOF 3
ENDMDL
