REMARK  3 active torsions:
REMARK  status: ('A' for Active; 'I' for Inactive)
REMARK    1  A    between atoms: C_1  and  O_3 
REMARK    2  A    between atoms: C_1  and  C_4 
REMARK    3  A    between atoms: C_5  and  O_10 
ROOT
ATOM      1  C   UNL d   1       2.539  -0.033  -0.084  0.00  0.00     0.070 A 
ATOM      2  C   UNL d   1       3.268  -1.230  -0.068  0.00  0.00     0.082 A 
ATOM      3  C   UNL d   1       4.663  -1.209  -0.043  0.00  0.00     0.037 A 
ATOM      4  C   UNL d   1       5.344   0.008  -0.039  0.00  0.00     0.003 A 
ATOM      5  C   UNL d   1       4.631   1.205  -0.061  0.00  0.00     0.001 A 
ATOM      6  C   UNL d   1       3.234   1.186  -0.083  0.00  0.00     0.021 A 
ENDROOT
BRANCH   1   7
ATOM      7  C   UNL d   1       1.058   0.030  -0.097  0.00  0.00     0.178 C 
ATOM      8  O   UNL d   1       0.381   1.040  -0.109  0.00  0.00    -0.646 OA
BRANCH   7   9
ATOM      9  O   UNL d   1       0.478  -1.189  -0.085  0.00  0.00    -0.773 OA
ATOM     10  H   UNL d   1      -0.482  -0.975  -0.080  0.00  0.00     0.167 HD
ENDBRANCH   7   9
ENDBRANCH   1   7
BRANCH   2  11
ATOM     11  O   UNL d   1       2.693  -2.472  -0.077  0.00  0.00    -0.360 OA
ATOM     12  H   UNL d   1       1.721  -2.345  -0.101  0.00  0.00     0.217 HD
ENDBRANCH   2  11
TORSDOF 3
