A45
  -OEChem-12162215263D

 28 30  0     0  0  0  0  0  0999 V2000
   33.6210   53.8810   59.9950 N   0  0  0  0  0  0  0  0  0  0  0  0
   33.9020   54.6570   61.0760 C   0  0  0  0  0  0  0  0  0  0  0  0
   32.8320   55.2340   61.8070 N   0  0  0  0  0  0  0  0  0  0  0  0
   33.0410   56.0220   62.8790 C   0  0  0  0  0  0  0  0  0  0  0  0
   31.9550   56.5550   63.5550 O   0  0  0  0  0  0  0  0  0  0  0  0
   34.4390   56.3120   63.3390 C   0  0  0  0  0  0  0  0  0  0  0  0
   34.9830   57.0220   64.3210 N   0  0  0  0  0  0  0  0  0  0  0  0
   36.4280   56.8950   64.2220 N   0  0  0  0  0  0  0  0  0  0  0  0
   36.6930   56.0340   63.0620 N   0  0  0  0  0  0  0  0  0  0  0  0
   35.5350   55.6770   62.5290 C   0  0  0  0  0  0  0  0  0  0  0  0
   35.1740   54.8640   61.4100 N   0  0  0  0  0  0  0  0  0  0  0  0
   37.3970   57.4810   65.0740 C   0  0  0  0  0  0  0  0  0  0  0  0
   37.8380   58.8170   64.8420 C   0  0  0  0  0  0  0  0  0  0  0  0
   38.8160   59.4120   65.7150 C   0  0  0  0  0  0  0  0  0  0  0  0
   39.3710   58.6590   66.8000 C   0  0  0  0  0  0  0  0  0  0  0  0
   38.9310   57.3150   67.0280 C   0  0  0  0  0  0  0  0  0  0  0  0
   37.9480   56.7260   66.1610 C   0  0  0  0  0  0  0  0  0  0  0  0
   39.4900   56.5200   68.1520 C   0  0  0  0  0  0  0  0  0  0  0  0
   39.1090   55.3760   68.3510 O   0  0  0  0  0  0  0  0  0  0  0  0
   40.4020   57.0410   68.9520 O   0  0  0  0  0  0  0  0  0  0  0  0
   34.3900   53.4660   59.4690 H   0  0  0  0  0  0  0  0  0  0  0  0
   33.0340   54.4130   59.3520 H   0  0  0  0  0  0  0  0  0  0  0  0
   32.1020   57.1100   64.3110 H   0  0  0  0  0  0  0  0  0  0  0  0
   37.4250   59.3860   63.9920 H   0  0  0  0  0  0  0  0  0  0  0  0
   39.1420   60.4520   65.5510 H   0  0  0  0  0  0  0  0  0  0  0  0
   40.1330   59.1110   67.4560 H   0  0  0  0  0  0  0  0  0  0  0  0
   37.6140   55.6880   66.3300 H   0  0  0  0  0  0  0  0  0  0  0  0
   39.4660   54.8670   69.0690 H   0  0  0  0  0  0  0  0  0  0  0  0
  1  2  1  0  0  0  0
  1 21  1  0  0  0  0
  1 22  1  0  0  0  0
  2  3  1  0  0  0  0
  2 11  2  0  0  0  0
  3  4  2  0  0  0  0
  4  5  1  0  0  0  0
  4  6  1  0  0  0  0
  5 23  1  0  0  0  0
  6  7  2  0  0  0  0
  6 10  1  0  0  0  0
  7  8  1  0  0  0  0
  8  9  1  0  0  0  0
  8 12  1  0  0  0  0
  9 10  2  0  0  0  0
 10 11  1  0  0  0  0
 12 13  1  0  0  0  0
 12 17  2  0  0  0  0
 13 14  2  0  0  0  0
 13 24  1  0  0  0  0
 14 15  1  0  0  0  0
 14 25  1  0  0  0  0
 15 16  2  0  0  0  0
 15 26  1  0  0  0  0
 16 17  1  0  0  0  0
 16 18  1  0  0  0  0
 17 27  1  0  0  0  0
 18 19  1  0  0  0  0
 18 20  2  0  0  0  0
 19 28  1  0  0  0  0
M  END
> <OPENEYE_ISO_SMILES>
c1cc(cc(c1)n2nc3c(n2)nc(nc3O)N)C(=O)O

> <OPENEYE_INCHI>
InChI=1S/C11H8N6O3/c12-11-13-8-7(9(18)14-11)15-17(16-8)6-3-1-2-5(4-6)10(19)20/h1-4H,(H,19,20)(H3,12,13,14,16,18)

> <OPENEYE_INCHIKEY>
KNLLRZNGRRRPEW-UHFFFAOYSA-N

> <FORMULA>
C11H8N6O3

$$$$
