MODEL 1
REMARK VINA RESULT:      -7.3      0.000      0.000
REMARK  10 active torsions:
REMARK  status: ('A' for Active; 'I' for Inactive)
REMARK    1  A    between atoms: O_4  and  C_21 
REMARK    2  A    between atoms: O_4  and  C_26 
REMARK    3  A    between atoms: O_5  and  C_22 
REMARK    4  A    between atoms: O_8  and  N_12 
REMARK    5  A    between atoms: CA_16  and  N_11 
REMARK       I    between atoms: N_11  and  C_23 
REMARK    6  A    between atoms: N_14  and  C_29 
REMARK    7  A    between atoms: CA_18  and  C_22 
REMARK    8  A    between atoms: C_19  and  C_21 
REMARK    9  A    between atoms: C_23  and  C_24 
REMARK   10  A    between atoms: C_24  and  C_25 
ROOT
ATOM      1  S   UNL d   1      37.513  -8.542  -2.531  0.00  0.00    -0.136 SA
ATOM      2  O   UNL d   1      41.661  -8.393  -2.176  0.00  0.00    -0.271 OA
ATOM      3  N   UNL d   1      39.732  -7.110  -2.320  0.00  0.00    -0.293 N 
ATOM      4  C   UNL d   1      38.746  -7.465  -3.332  0.00  0.00     0.187 C 
ATOM      5  CA  UNL d   1      39.941  -8.149  -4.102  0.00  0.00     0.211 C 
ATOM      6  C   UNL d   1      40.656  -8.045  -2.723  0.00  0.00     0.251 C 
ATOM      7  CA  UNL d   1      39.439  -6.600  -1.078  0.00  0.00     0.117 C 
ATOM      8  C   UNL d   1      38.166  -6.631  -0.600  0.00  0.00    -0.013 C 
ATOM      9  C   UNL d   1      37.002  -7.247  -1.352  0.00  0.00     0.115 C 
ENDROOT
BRANCH   5  10
ATOM     10  N   UNL d   1      39.623  -9.416  -4.826  0.00  0.00    -0.339 N 
ATOM     11  C   UNL d   1      39.591  -9.403  -6.246  0.00  0.00     0.275 C 
ATOM     12  O   UNL d   1      39.322 -10.416  -6.875  0.00  0.00    -0.266 OA
ATOM     13  H   UNL d   1      39.690 -10.324  -4.368  0.00  0.00     0.163 HD
BRANCH  11  14
ATOM     14  C   UNL d   1      39.841  -8.048  -6.965  0.00  0.00     0.180 C 
ATOM     15  N   UNL d   1      40.990  -7.456  -7.158  0.00  0.00    -0.126 NA
BRANCH  15  16
ATOM     16  O   UNL d   1      42.111  -8.045  -6.572  0.00  0.00    -0.261 OA
ATOM     17  C   UNL d   1      43.030  -8.381  -7.627  0.00  0.00     0.240 C 
ENDBRANCH  15  16
BRANCH  14  18
ATOM     18  C   UNL d   1      38.712  -7.244  -7.447  0.00  0.00     0.102 A 
ATOM     19  N   UNL d   1      38.787  -6.525  -8.625  0.00  0.00    -0.222 NA
ATOM     20  C   UNL d   1      37.610  -6.048  -8.943  0.00  0.00     0.164 A 
ATOM     21  S   UNL d   1      36.351  -6.361  -7.818  0.00  0.00    -0.062 SA
ATOM     22  C   UNL d   1      37.456  -7.235  -6.850  0.00  0.00     0.087 A 
BRANCH  20  23
ATOM     23  N   UNL d   1      37.386  -5.385 -10.075  0.00  0.00    -0.378 N 
ATOM     24  H   UNL d   1      36.434  -5.308 -10.418  0.00  0.00     0.158 HD
ATOM     25  H   UNL d   1      37.971  -4.582 -10.257  0.00  0.00     0.158 HD
ENDBRANCH  20  23
ENDBRANCH  14  18
ENDBRANCH  11  14
ENDBRANCH   5  10
BRANCH   7  26
ATOM     26  C   UNL d   1      40.547  -5.871  -0.347  0.00  0.00     0.194 C 
ATOM     27  OXT UNL d   1      40.546  -4.669  -0.141  0.00  0.00    -0.645 OA
BRANCH  26  28
ATOM     28  O   UNL d   1      41.635  -6.618  -0.058  0.00  0.00    -0.772 OA
ATOM     29  H   UNL d   1      41.462  -7.572   0.088  0.00  0.00     0.167 HD
ENDBRANCH  26  28
ENDBRANCH   7  26
BRANCH   8  30
ATOM     30  C   UNL d   1      37.778  -6.132   0.785  0.00  0.00     0.216 C 
BRANCH  30  31
ATOM     31  O   UNL d   1      37.209  -7.203   1.555  0.00  0.00    -0.317 OA
BRANCH  31  32
ATOM     32  C   UNL d   1      38.028  -7.809   2.455  0.00  0.00     0.255 C 
ATOM     33  O   UNL d   1      39.226  -7.611   2.574  0.00  0.00    -0.266 OA
ATOM     34  C   UNL d   1      37.235  -8.758   3.304  0.00  0.00     0.126 C 
ENDBRANCH  31  32
ENDBRANCH  30  31
ENDBRANCH   8  30
TORSDOF 10
ENDMDL
MODEL 2
REMARK VINA RESULT:      -7.0      4.043      7.119
REMARK  10 active torsions:
REMARK  status: ('A' for Active; 'I' for Inactive)
REMARK    1  A    between atoms: O_4  and  C_21 
REMARK    2  A    between atoms: O_4  and  C_26 
REMARK    3  A    between atoms: O_5  and  C_22 
REMARK    4  A    between atoms: O_8  and  N_12 
REMARK    5  A    between atoms: CA_16  and  N_11 
REMARK       I    between atoms: N_11  and  C_23 
REMARK    6  A    between atoms: N_14  and  C_29 
REMARK    7  A    between atoms: CA_18  and  C_22 
REMARK    8  A    between atoms: C_19  and  C_21 
REMARK    9  A    between atoms: C_23  and  C_24 
REMARK   10  A    between atoms: C_24  and  C_25 
ROOT
ATOM      1  S   UNL d   1      39.199  -6.970  -0.614  0.00  0.00    -0.136 SA
ATOM      2  O   UNL d   1      41.313  -7.195  -4.198  0.00  0.00    -0.271 OA
ATOM      3  N   UNL d   1      40.104  -8.419  -2.640  0.00  0.00    -0.293 N 
ATOM      4  C   UNL d   1      40.390  -8.206  -1.228  0.00  0.00     0.187 C 
ATOM      5  CA  UNL d   1      41.807  -7.701  -1.703  0.00  0.00     0.211 C 
ATOM      6  C   UNL d   1      41.108  -7.596  -3.090  0.00  0.00     0.251 C 
ATOM      7  CA  UNL d   1      38.864  -8.705  -3.159  0.00  0.00     0.117 C 
ATOM      8  C   UNL d   1      37.744  -8.552  -2.400  0.00  0.00    -0.013 C 
ATOM      9  C   UNL d   1      37.760  -8.033  -0.976  0.00  0.00     0.115 C 
ENDROOT
BRANCH   5  10
ATOM     10  N   UNL d   1      42.396  -6.562  -0.934  0.00  0.00    -0.339 N 
ATOM     11  C   UNL d   1      43.748  -6.649  -0.511  0.00  0.00     0.275 C 
ATOM     12  O   UNL d   1      44.263  -5.745   0.131  0.00  0.00    -0.266 OA
ATOM     13  H   UNL d   1      41.964  -5.639  -0.933  0.00  0.00     0.163 HD
BRANCH  11  14
ATOM     14  C   UNL d   1      44.526  -7.956  -0.831  0.00  0.00     0.180 C 
ATOM     15  N   UNL d   1      44.786  -8.942  -0.013  0.00  0.00    -0.126 NA
BRANCH  15  16
ATOM     16  O   UNL d   1      44.418  -8.769   1.322  0.00  0.00    -0.261 OA
ATOM     17  C   UNL d   1      45.495  -9.258   2.140  0.00  0.00     0.240 C 
ENDBRANCH  15  16
BRANCH  14  18
ATOM     18  C   UNL d   1      45.130  -8.155  -2.153  0.00  0.00     0.102 A 
ATOM     19  N   UNL d   1      46.075  -7.278  -2.655  0.00  0.00    -0.222 NA
ATOM     20  C   UNL d   1      46.602  -7.758  -3.752  0.00  0.00     0.164 A 
ATOM     21  S   UNL d   1      45.955  -9.252  -4.300  0.00  0.00    -0.062 SA
ATOM     22  C   UNL d   1      44.914  -9.278  -2.944  0.00  0.00     0.087 A 
BRANCH  20  23
ATOM     23  N   UNL d   1      47.597  -7.151  -4.396  0.00  0.00    -0.378 N 
ATOM     24  H   UNL d   1      47.583  -7.128  -5.411  0.00  0.00     0.158 HD
ATOM     25  H   UNL d   1      47.992  -6.332  -3.957  0.00  0.00     0.158 HD
ENDBRANCH  20  23
ENDBRANCH  14  18
ENDBRANCH  11  14
ENDBRANCH   5  10
BRANCH   7  26
ATOM     26  C   UNL d   1      38.814  -9.338  -4.533  0.00  0.00     0.194 C 
ATOM     27  OXT UNL d   1      38.885 -10.539  -4.729  0.00  0.00    -0.645 OA
BRANCH  26  28
ATOM     28  O   UNL d   1      38.837  -8.470  -5.568  0.00  0.00    -0.772 OA
ATOM     29  H   UNL d   1      39.141  -8.843  -6.422  0.00  0.00     0.167 HD
ENDBRANCH  26  28
ENDBRANCH   7  26
BRANCH   8  30
ATOM     30  C   UNL d   1      36.337  -8.800  -2.924  0.00  0.00     0.216 C 
BRANCH  30  31
ATOM     31  O   UNL d   1      35.722  -7.556  -3.295  0.00  0.00    -0.317 OA
BRANCH  31  32
ATOM     32  C   UNL d   1      35.588  -7.314  -4.625  0.00  0.00     0.255 C 
ATOM     33  O   UNL d   1      36.431  -6.803  -5.344  0.00  0.00    -0.266 OA
ATOM     34  C   UNL d   1      34.243  -7.784  -5.094  0.00  0.00     0.126 C 
ENDBRANCH  31  32
ENDBRANCH  30  31
ENDBRANCH   8  30
TORSDOF 10
ENDMDL
MODEL 3
REMARK VINA RESULT:      -7.0      3.218      8.223
REMARK  10 active torsions:
REMARK  status: ('A' for Active; 'I' for Inactive)
REMARK    1  A    between atoms: O_4  and  C_21 
REMARK    2  A    between atoms: O_4  and  C_26 
REMARK    3  A    between atoms: O_5  and  C_22 
REMARK    4  A    between atoms: O_8  and  N_12 
REMARK    5  A    between atoms: CA_16  and  N_11 
REMARK       I    between atoms: N_11  and  C_23 
REMARK    6  A    between atoms: N_14  and  C_29 
REMARK    7  A    between atoms: CA_18  and  C_22 
REMARK    8  A    between atoms: C_19  and  C_21 
REMARK    9  A    between atoms: C_23  and  C_24 
REMARK   10  A    between atoms: C_24  and  C_25 
ROOT
ATOM      1  S   UNL d   1      39.183  -9.462  -5.189  0.00  0.00    -0.136 SA
ATOM      2  O   UNL d   1      35.506  -7.685  -4.367  0.00  0.00    -0.271 OA
ATOM      3  N   UNL d   1      37.617  -7.326  -5.261  0.00  0.00    -0.293 N 
ATOM      4  C   UNL d   1      38.769  -7.818  -4.519  0.00  0.00     0.187 C 
ATOM      5  CA  UNL d   1      37.843  -7.747  -3.245  0.00  0.00     0.211 C 
ATOM      6  C   UNL d   1      36.700  -7.672  -4.298  0.00  0.00     0.251 C 
ATOM      7  CA  UNL d   1      37.522  -7.281  -6.632  0.00  0.00     0.117 C 
ATOM      8  C   UNL d   1      38.417  -7.948  -7.410  0.00  0.00    -0.013 C 
ATOM      9  C   UNL d   1      39.539  -8.803  -6.854  0.00  0.00     0.115 C 
ENDROOT
BRANCH   5  10
ATOM     10  N   UNL d   1      38.026  -8.831  -2.232  0.00  0.00    -0.339 N 
ATOM     11  C   UNL d   1      38.946  -8.625  -1.169  0.00  0.00     0.275 C 
ATOM     12  O   UNL d   1      39.133  -9.492  -0.328  0.00  0.00    -0.266 OA
ATOM     13  H   UNL d   1      37.343  -9.579  -2.122  0.00  0.00     0.163 HD
BRANCH  11  14
ATOM     14  C   UNL d   1      39.749  -7.295  -1.153  0.00  0.00     0.180 C 
ATOM     15  N   UNL d   1      39.277  -6.088  -0.993  0.00  0.00    -0.126 NA
BRANCH  15  16
ATOM     16  O   UNL d   1      37.890  -5.956  -0.930  0.00  0.00    -0.261 OA
ATOM     17  C   UNL d   1      37.507  -6.014   0.456  0.00  0.00     0.240 C 
ENDBRANCH  15  16
BRANCH  14  18
ATOM     18  C   UNL d   1      41.195  -7.299  -1.408  0.00  0.00     0.102 A 
ATOM     19  N   UNL d   1      42.070  -6.572  -0.622  0.00  0.00    -0.222 NA
ATOM     20  C   UNL d   1      43.308  -6.878  -0.917  0.00  0.00     0.164 A 
ATOM     21  S   UNL d   1      43.512  -7.997  -2.204  0.00  0.00    -0.062 SA
ATOM     22  C   UNL d   1      41.813  -8.110  -2.353  0.00  0.00     0.087 A 
BRANCH  20  23
ATOM     23  N   UNL d   1      44.348  -6.382  -0.252  0.00  0.00    -0.378 N 
ATOM     24  H   UNL d   1      44.756  -5.506  -0.561  0.00  0.00     0.158 HD
ATOM     25  H   UNL d   1      44.363  -6.529   0.747  0.00  0.00     0.158 HD
ENDBRANCH  20  23
ENDBRANCH  14  18
ENDBRANCH  11  14
ENDBRANCH   5  10
BRANCH   7  26
ATOM     26  C   UNL d   1      36.491  -6.345  -7.227  0.00  0.00     0.194 C 
ATOM     27  OXT UNL d   1      36.684  -5.155  -7.411  0.00  0.00    -0.645 OA
BRANCH  26  28
ATOM     28  O   UNL d   1      35.265  -6.880  -7.411  0.00  0.00    -0.772 OA
ATOM     29  H   UNL d   1      34.847  -6.686  -8.277  0.00  0.00     0.167 HD
ENDBRANCH  26  28
ENDBRANCH   7  26
BRANCH   8  30
ATOM     30  C   UNL d   1      38.342  -7.985  -8.929  0.00  0.00     0.216 C 
BRANCH  30  31
ATOM     31  O   UNL d   1      39.060  -6.872  -9.487  0.00  0.00    -0.317 OA
BRANCH  31  32
ATOM     32  C   UNL d   1      38.394  -6.110 -10.395  0.00  0.00     0.255 C 
ATOM     33  O   UNL d   1      38.336  -4.892 -10.396  0.00  0.00    -0.266 OA
ATOM     34  C   UNL d   1      37.746  -6.993 -11.420  0.00  0.00     0.126 C 
ENDBRANCH  31  32
ENDBRANCH  30  31
ENDBRANCH   8  30
TORSDOF 10
ENDMDL
MODEL 4
REMARK VINA RESULT:      -6.8      3.460      5.088
REMARK  10 active torsions:
REMARK  status: ('A' for Active; 'I' for Inactive)
REMARK    1  A    between atoms: O_4  and  C_21 
REMARK    2  A    between atoms: O_4  and  C_26 
REMARK    3  A    between atoms: O_5  and  C_22 
REMARK    4  A    between atoms: O_8  and  N_12 
REMARK    5  A    between atoms: CA_16  and  N_11 
REMARK       I    between atoms: N_11  and  C_23 
REMARK    6  A    between atoms: N_14  and  C_29 
REMARK    7  A    between atoms: CA_18  and  C_22 
REMARK    8  A    between atoms: C_19  and  C_21 
REMARK    9  A    between atoms: C_23  and  C_24 
REMARK   10  A    between atoms: C_24  and  C_25 
ROOT
ATOM      1  S   UNL d   1      39.559  -6.964  -5.575  0.00  0.00    -0.136 SA
ATOM      2  O   UNL d   1      35.895  -6.075  -7.348  0.00  0.00    -0.271 OA
ATOM      3  N   UNL d   1      37.045  -7.639  -6.075  0.00  0.00    -0.293 N 
ATOM      4  C   UNL d   1      38.388  -8.013  -6.498  0.00  0.00     0.187 C 
ATOM      5  CA  UNL d   1      37.948  -7.545  -7.939  0.00  0.00     0.211 C 
ATOM      6  C   UNL d   1      36.798  -6.837  -7.164  0.00  0.00     0.251 C 
ATOM      7  CA  UNL d   1      36.625  -7.551  -4.770  0.00  0.00     0.117 C 
ATOM      8  C   UNL d   1      37.527  -7.559  -3.751  0.00  0.00    -0.013 C 
ATOM      9  C   UNL d   1      39.028  -7.624  -3.958  0.00  0.00     0.115 C 
ENDROOT
BRANCH   5  10
ATOM     10  N   UNL d   1      38.994  -6.864  -8.762  0.00  0.00    -0.339 N 
ATOM     11  C   UNL d   1      39.123  -7.216 -10.131  0.00  0.00     0.275 C 
ATOM     12  O   UNL d   1      39.974  -6.692 -10.835  0.00  0.00    -0.266 OA
ATOM     13  H   UNL d   1      39.426  -5.992  -8.460  0.00  0.00     0.163 HD
BRANCH  11  14
ATOM     14  C   UNL d   1      38.195  -8.334 -10.683  0.00  0.00     0.180 C 
ATOM     15  N   UNL d   1      38.414  -9.623 -10.667  0.00  0.00    -0.126 NA
BRANCH  15  16
ATOM     16  O   UNL d   1      39.657 -10.046 -10.196  0.00  0.00    -0.261 OA
ATOM     17  C   UNL d   1      39.426 -11.064  -9.205  0.00  0.00     0.240 C 
ENDBRANCH  15  16
BRANCH  14  18
ATOM     18  C   UNL d   1      36.950  -7.989 -11.379  0.00  0.00     0.102 A 
ATOM     19  N   UNL d   1      35.859  -8.839 -11.373  0.00  0.00    -0.222 NA
ATOM     20  C   UNL d   1      34.815  -8.241 -11.890  0.00  0.00     0.164 A 
ATOM     21  S   UNL d   1      35.084  -6.654 -12.487  0.00  0.00    -0.062 SA
ATOM     22  C   UNL d   1      36.714  -6.758 -11.981  0.00  0.00     0.087 A 
BRANCH  20  23
ATOM     23  N   UNL d   1      33.611  -8.808 -11.930  0.00  0.00    -0.378 N 
ATOM     24  H   UNL d   1      33.347  -9.453 -11.193  0.00  0.00     0.158 HD
ATOM     25  H   UNL d   1      32.855  -8.247 -12.296  0.00  0.00     0.158 HD
ENDBRANCH  20  23
ENDBRANCH  14  18
ENDBRANCH  11  14
ENDBRANCH   5  10
BRANCH   7  26
ATOM     26  C   UNL d   1      35.134  -7.605  -4.514  0.00  0.00     0.194 C 
ATOM     27  OXT UNL d   1      34.500  -8.642  -4.420  0.00  0.00    -0.645 OA
BRANCH  26  28
ATOM     28  O   UNL d   1      34.501  -6.412  -4.545  0.00  0.00    -0.772 OA
ATOM     29  H   UNL d   1      33.664  -6.394  -5.056  0.00  0.00     0.167 HD
ENDBRANCH  26  28
ENDBRANCH   7  26
BRANCH   8  30
ATOM     30  C   UNL d   1      37.138  -7.414  -2.287  0.00  0.00     0.216 C 
BRANCH  30  31
ATOM     31  O   UNL d   1      37.586  -6.147  -1.779  0.00  0.00    -0.317 OA
BRANCH  31  32
ATOM     32  C   UNL d   1      37.857  -6.084  -0.449  0.00  0.00     0.255 C 
ATOM     33  O   UNL d   1      37.033  -6.142   0.449  0.00  0.00    -0.266 OA
ATOM     34  C   UNL d   1      39.336  -5.945  -0.238  0.00  0.00     0.126 C 
ENDBRANCH  31  32
ENDBRANCH  30  31
ENDBRANCH   8  30
TORSDOF 10
ENDMDL
MODEL 5
REMARK VINA RESULT:      -6.8      3.109      8.329
REMARK  10 active torsions:
REMARK  status: ('A' for Active; 'I' for Inactive)
REMARK    1  A    between atoms: O_4  and  C_21 
REMARK    2  A    between atoms: O_4  and  C_26 
REMARK    3  A    between atoms: O_5  and  C_22 
REMARK    4  A    between atoms: O_8  and  N_12 
REMARK    5  A    between atoms: CA_16  and  N_11 
REMARK       I    between atoms: N_11  and  C_23 
REMARK    6  A    between atoms: N_14  and  C_29 
REMARK    7  A    between atoms: CA_18  and  C_22 
REMARK    8  A    between atoms: C_19  and  C_21 
REMARK    9  A    between atoms: C_23  and  C_24 
REMARK   10  A    between atoms: C_24  and  C_25 
ROOT
ATOM      1  S   UNL d   1      39.907  -9.150  -7.045  0.00  0.00    -0.136 SA
ATOM      2  O   UNL d   1      36.266  -8.459  -5.140  0.00  0.00    -0.271 OA
ATOM      3  N   UNL d   1      38.054  -7.445  -6.219  0.00  0.00    -0.293 N 
ATOM      4  C   UNL d   1      39.401  -7.864  -5.857  0.00  0.00     0.187 C 
ATOM      5  CA  UNL d   1      38.772  -8.325  -4.485  0.00  0.00     0.211 C 
ATOM      6  C   UNL d   1      37.431  -8.216  -5.267  0.00  0.00     0.251 C 
ATOM      7  CA  UNL d   1      37.659  -7.063  -7.479  0.00  0.00     0.117 C 
ATOM      8  C   UNL d   1      38.457  -7.300  -8.556  0.00  0.00    -0.013 C 
ATOM      9  C   UNL d   1      39.790  -8.017  -8.471  0.00  0.00     0.115 C 
ENDROOT
BRANCH   5  10
ATOM     10  N   UNL d   1      39.334  -9.574  -3.886  0.00  0.00    -0.339 N 
ATOM     11  C   UNL d   1      40.023  -9.487  -2.648  0.00  0.00     0.275 C 
ATOM     12  O   UNL d   1      40.508 -10.483  -2.131  0.00  0.00    -0.266 OA
ATOM     13  H   UNL d   1      39.020 -10.496  -4.184  0.00  0.00     0.163 HD
BRANCH  11  14
ATOM     14  C   UNL d   1      40.198  -8.081  -2.011  0.00  0.00     0.180 C 
ATOM     15  N   UNL d   1      41.162  -7.226  -2.232  0.00  0.00    -0.126 NA
BRANCH  15  16
ATOM     16  O   UNL d   1      42.207  -7.653  -3.051  0.00  0.00    -0.261 OA
ATOM     17  C   UNL d   1      43.312  -8.009  -2.202  0.00  0.00     0.240 C 
ENDBRANCH  15  16
BRANCH  14  18
ATOM     18  C   UNL d   1      39.261  -7.610  -0.984  0.00  0.00     0.102 A 
ATOM     19  N   UNL d   1      39.276  -8.125   0.299  0.00  0.00    -0.222 NA
ATOM     20  C   UNL d   1      38.490  -7.426   1.079  0.00  0.00     0.164 A 
ATOM     21  S   UNL d   1      37.622  -6.155   0.316  0.00  0.00    -0.062 SA
ATOM     22  C   UNL d   1      38.385  -6.545  -1.163  0.00  0.00     0.087 A 
BRANCH  20  23
ATOM     23  N   UNL d   1      38.383  -7.658   2.385  0.00  0.00    -0.378 N 
ATOM     24  H   UNL d   1      38.283  -6.871   3.017  0.00  0.00     0.158 HD
ATOM     25  H   UNL d   1      37.884  -8.492   2.661  0.00  0.00     0.158 HD
ENDBRANCH  20  23
ENDBRANCH  14  18
ENDBRANCH  11  14
ENDBRANCH   5  10
BRANCH   7  26
ATOM     26  C   UNL d   1      36.394  -6.239  -7.591  0.00  0.00     0.194 C 
ATOM     27  OXT UNL d   1      36.361  -5.027  -7.467  0.00  0.00    -0.645 OA
BRANCH  26  28
ATOM     28  O   UNL d   1      35.250  -6.952  -7.690  0.00  0.00    -0.772 OA
ATOM     29  H   UNL d   1      34.539  -6.694  -7.065  0.00  0.00     0.167 HD
ENDBRANCH  26  28
ENDBRANCH   7  26
BRANCH   8  30
ATOM     30  C   UNL d   1      38.062  -6.951  -9.983  0.00  0.00     0.216 C 
BRANCH  30  31
ATOM     31  O   UNL d   1      38.702  -5.730 -10.389  0.00  0.00    -0.317 OA
BRANCH  31  32
ATOM     32  C   UNL d   1      39.369  -5.755 -11.573  0.00  0.00     0.255 C 
ATOM     33  O   UNL d   1      40.157  -6.617 -11.928  0.00  0.00    -0.266 OA
ATOM     34  C   UNL d   1      38.983  -4.564 -12.399  0.00  0.00     0.126 C 
ENDBRANCH  31  32
ENDBRANCH  30  31
ENDBRANCH   8  30
TORSDOF 10
ENDMDL
MODEL 6
REMARK VINA RESULT:      -6.5      3.784      5.399
REMARK  10 active torsions:
REMARK  status: ('A' for Active; 'I' for Inactive)
REMARK    1  A    between atoms: O_4  and  C_21 
REMARK    2  A    between atoms: O_4  and  C_26 
REMARK    3  A    between atoms: O_5  and  C_22 
REMARK    4  A    between atoms: O_8  and  N_12 
REMARK    5  A    between atoms: CA_16  and  N_11 
REMARK       I    between atoms: N_11  and  C_23 
REMARK    6  A    between atoms: N_14  and  C_29 
REMARK    7  A    between atoms: CA_18  and  C_22 
REMARK    8  A    between atoms: C_19  and  C_21 
REMARK    9  A    between atoms: C_23  and  C_24 
REMARK   10  A    between atoms: C_24  and  C_25 
ROOT
ATOM      1  S   UNL d   1      38.139 -10.801  -3.888  0.00  0.00    -0.136 SA
ATOM      2  O   UNL d   1      39.941  -8.713  -0.766  0.00  0.00    -0.271 OA
ATOM      3  N   UNL d   1      38.811  -8.489  -2.781  0.00  0.00    -0.293 N 
ATOM      4  C   UNL d   1      39.220  -9.334  -3.894  0.00  0.00     0.187 C 
ATOM      5  CA  UNL d   1      40.615  -9.436  -3.164  0.00  0.00     0.211 C 
ATOM      6  C   UNL d   1      39.810  -8.913  -1.938  0.00  0.00     0.251 C 
ATOM      7  CA  UNL d   1      37.521  -8.087  -2.529  0.00  0.00     0.117 C 
ATOM      8  C   UNL d   1      36.475  -8.673  -3.172  0.00  0.00    -0.013 C 
ATOM      9  C   UNL d   1      36.630  -9.811  -4.161  0.00  0.00     0.115 C 
ENDROOT
BRANCH   5  10
ATOM     10  N   UNL d   1      41.313 -10.754  -3.251  0.00  0.00    -0.339 N 
ATOM     11  C   UNL d   1      42.653 -10.788  -3.720  0.00  0.00     0.275 C 
ATOM     12  O   UNL d   1      43.255 -11.847  -3.818  0.00  0.00    -0.266 OA
ATOM     13  H   UNL d   1      40.971 -11.573  -2.751  0.00  0.00     0.163 HD
BRANCH  11  14
ATOM     14  C   UNL d   1      43.301  -9.447  -4.164  0.00  0.00     0.180 C 
ATOM     15  N   UNL d   1      43.795  -8.514  -3.395  0.00  0.00    -0.126 NA
BRANCH  15  16
ATOM     16  O   UNL d   1      43.641  -8.683  -2.019  0.00  0.00    -0.261 OA
ATOM     17  C   UNL d   1      44.953  -8.800  -1.442  0.00  0.00     0.240 C 
ENDBRANCH  15  16
BRANCH  14  18
ATOM     18  C   UNL d   1      43.337  -9.076  -5.584  0.00  0.00     0.102 A 
ATOM     19  N   UNL d   1      44.513  -8.693  -6.201  0.00  0.00    -0.222 NA
ATOM     20  C   UNL d   1      44.337  -8.596  -7.495  0.00  0.00     0.164 A 
ATOM     21  S   UNL d   1      42.738  -8.881  -8.053  0.00  0.00    -0.062 SA
ATOM     22  C   UNL d   1      42.251  -9.196  -6.445  0.00  0.00     0.087 A 
BRANCH  20  23
ATOM     23  N   UNL d   1      45.332  -8.321  -8.336  0.00  0.00    -0.378 N 
ATOM     24  H   UNL d   1      46.019  -7.623  -8.072  0.00  0.00     0.158 HD
ATOM     25  H   UNL d   1      45.694  -9.090  -8.881  0.00  0.00     0.158 HD
ENDBRANCH  20  23
ENDBRANCH  14  18
ENDBRANCH  11  14
ENDBRANCH   5  10
BRANCH   7  26
ATOM     26  C   UNL d   1      37.332  -6.876  -1.640  0.00  0.00     0.194 C 
ATOM     27  OXT UNL d   1      36.985  -6.940  -0.473  0.00  0.00    -0.645 OA
BRANCH  26  28
ATOM     28  O   UNL d   1      37.427  -5.682  -2.265  0.00  0.00    -0.772 OA
ATOM     29  H   UNL d   1      38.171  -5.114  -1.975  0.00  0.00     0.167 HD
ENDBRANCH  26  28
ENDBRANCH   7  26
BRANCH   8  30
ATOM     30  C   UNL d   1      35.020  -8.314  -2.905  0.00  0.00     0.216 C 
BRANCH  30  31
ATOM     31  O   UNL d   1      34.173  -8.914  -3.899  0.00  0.00    -0.317 OA
BRANCH  31  32
ATOM     32  C   UNL d   1      33.163  -8.145  -4.384  0.00  0.00     0.255 C 
ATOM     33  O   UNL d   1      32.853  -7.038  -3.978  0.00  0.00    -0.266 OA
ATOM     34  C   UNL d   1      32.483  -8.856  -5.516  0.00  0.00     0.126 C 
ENDBRANCH  31  32
ENDBRANCH  30  31
ENDBRANCH   8  30
TORSDOF 10
ENDMDL
MODEL 7
REMARK VINA RESULT:      -6.5     15.722     18.455
REMARK  10 active torsions:
REMARK  status: ('A' for Active; 'I' for Inactive)
REMARK    1  A    between atoms: O_4  and  C_21 
REMARK    2  A    between atoms: O_4  and  C_26 
REMARK    3  A    between atoms: O_5  and  C_22 
REMARK    4  A    between atoms: O_8  and  N_12 
REMARK    5  A    between atoms: CA_16  and  N_11 
REMARK       I    between atoms: N_11  and  C_23 
REMARK    6  A    between atoms: N_14  and  C_29 
REMARK    7  A    between atoms: CA_18  and  C_22 
REMARK    8  A    between atoms: C_19  and  C_21 
REMARK    9  A    between atoms: C_23  and  C_24 
REMARK   10  A    between atoms: C_24  and  C_25 
ROOT
ATOM      1  S   UNL d   1      28.654   0.561 -17.019  0.00  0.00    -0.136 SA
ATOM      2  O   UNL d   1      27.102   0.319 -13.160  0.00  0.00    -0.271 OA
ATOM      3  N   UNL d   1      28.841  -0.358 -14.540  0.00  0.00    -0.293 N 
ATOM      4  C   UNL d   1      28.509  -0.848 -15.871  0.00  0.00     0.187 C 
ATOM      5  CA  UNL d   1      27.086  -1.179 -15.277  0.00  0.00     0.211 C 
ATOM      6  C   UNL d   1      27.534  -0.218 -14.137  0.00  0.00     0.251 C 
ATOM      7  CA  UNL d   1      29.970   0.357 -14.222  0.00  0.00     0.117 C 
ATOM      8  C   UNL d   1      30.751   0.890 -15.201  0.00  0.00    -0.013 C 
ATOM      9  C   UNL d   1      30.434   0.781 -16.680  0.00  0.00     0.115 C 
ENDROOT
BRANCH   5  10
ATOM     10  N   UNL d   1      25.921  -0.966 -16.189  0.00  0.00    -0.339 N 
ATOM     11  C   UNL d   1      24.817  -1.856 -16.107  0.00  0.00     0.275 C 
ATOM     12  O   UNL d   1      23.852  -1.724 -16.845  0.00  0.00    -0.266 OA
ATOM     13  H   UNL d   1      25.773  -0.079 -16.667  0.00  0.00     0.163 HD
BRANCH  11  14
ATOM     14  C   UNL d   1      24.910  -3.036 -15.101  0.00  0.00     0.180 C 
ATOM     15  N   UNL d   1      25.545  -4.166 -15.263  0.00  0.00    -0.126 NA
BRANCH  15  16
ATOM     16  O   UNL d   1      26.125  -4.391 -16.512  0.00  0.00    -0.261 OA
ATOM     17  C   UNL d   1      25.691  -5.684 -16.970  0.00  0.00     0.240 C 
ENDBRANCH  15  16
BRANCH  14  18
ATOM     18  C   UNL d   1      24.172  -2.989 -13.833  0.00  0.00     0.102 A 
ATOM     19  N   UNL d   1      23.699  -4.139 -13.228  0.00  0.00    -0.222 NA
ATOM     20  C   UNL d   1      23.248  -3.870 -12.029  0.00  0.00     0.164 A 
ATOM     21  S   UNL d   1      23.288  -2.215 -11.572  0.00  0.00    -0.062 SA
ATOM     22  C   UNL d   1      23.999  -1.833 -13.079  0.00  0.00     0.087 A 
BRANCH  20  23
ATOM     23  N   UNL d   1      22.810  -4.813 -11.199  0.00  0.00    -0.378 N 
ATOM     24  H   UNL d   1      23.108  -5.772 -11.344  0.00  0.00     0.158 HD
ATOM     25  H   UNL d   1      22.685  -4.548 -10.232  0.00  0.00     0.158 HD
ENDBRANCH  20  23
ENDBRANCH  14  18
ENDBRANCH  11  14
ENDBRANCH   5  10
BRANCH   7  26
ATOM     26  C   UNL d   1      30.387   0.388 -12.766  0.00  0.00     0.194 C 
ATOM     27  OXT UNL d   1      31.285  -0.294 -12.304  0.00  0.00    -0.645 OA
BRANCH  26  28
ATOM     28  O   UNL d   1      29.592   1.120 -11.956  0.00  0.00    -0.772 OA
ATOM     29  H   UNL d   1      29.778   1.035 -10.997  0.00  0.00     0.167 HD
ENDBRANCH  26  28
ENDBRANCH   7  26
BRANCH   8  30
ATOM     30  C   UNL d   1      31.985   1.735 -14.921  0.00  0.00     0.216 C 
BRANCH  30  31
ATOM     31  O   UNL d   1      31.600   3.008 -14.377  0.00  0.00    -0.317 OA
BRANCH  31  32
ATOM     32  C   UNL d   1      32.128   4.111 -14.971  0.00  0.00     0.255 C 
ATOM     33  O   UNL d   1      31.529   4.880 -15.703  0.00  0.00    -0.266 OA
ATOM     34  C   UNL d   1      33.569   4.257 -14.578  0.00  0.00     0.126 C 
ENDBRANCH  31  32
ENDBRANCH  30  31
ENDBRANCH   8  30
TORSDOF 10
ENDMDL
MODEL 8
REMARK VINA RESULT:      -6.4      2.119      3.463
REMARK  10 active torsions:
REMARK  status: ('A' for Active; 'I' for Inactive)
REMARK    1  A    between atoms: O_4  and  C_21 
REMARK    2  A    between atoms: O_4  and  C_26 
REMARK    3  A    between atoms: O_5  and  C_22 
REMARK    4  A    between atoms: O_8  and  N_12 
REMARK    5  A    between atoms: CA_16  and  N_11 
REMARK       I    between atoms: N_11  and  C_23 
REMARK    6  A    between atoms: N_14  and  C_29 
REMARK    7  A    between atoms: CA_18  and  C_22 
REMARK    8  A    between atoms: C_19  and  C_21 
REMARK    9  A    between atoms: C_23  and  C_24 
REMARK   10  A    between atoms: C_24  and  C_25 
ROOT
ATOM      1  S   UNL d   1      37.572  -8.349  -3.358  0.00  0.00    -0.136 SA
ATOM      2  O   UNL d   1      41.506  -9.448  -2.537  0.00  0.00    -0.271 OA
ATOM      3  N   UNL d   1      40.063  -7.647  -2.789  0.00  0.00    -0.293 N 
ATOM      4  C   UNL d   1      39.156  -7.649  -3.928  0.00  0.00     0.187 C 
ATOM      5  CA  UNL d   1      40.193  -8.620  -4.614  0.00  0.00     0.211 C 
ATOM      6  C   UNL d   1      40.723  -8.794  -3.161  0.00  0.00     0.251 C 
ATOM      7  CA  UNL d   1      39.772  -7.129  -1.550  0.00  0.00     0.117 C 
ATOM      8  C   UNL d   1      38.492  -6.804  -1.219  0.00  0.00    -0.013 C 
ATOM      9  C   UNL d   1      37.308  -7.014  -2.142  0.00  0.00     0.115 C 
ENDROOT
BRANCH   5  10
ATOM     10  N   UNL d   1      39.620  -9.704  -5.469  0.00  0.00    -0.339 N 
ATOM     11  C   UNL d   1      39.860  -9.669  -6.869  0.00  0.00     0.275 C 
ATOM     12  O   UNL d   1      39.398 -10.530  -7.604  0.00  0.00    -0.266 OA
ATOM     13  H   UNL d   1      39.300 -10.585  -5.071  0.00  0.00     0.163 HD
BRANCH  11  14
ATOM     14  C   UNL d   1      40.667  -8.470  -7.437  0.00  0.00     0.180 C 
ATOM     15  N   UNL d   1      40.195  -7.327  -7.859  0.00  0.00    -0.126 NA
BRANCH  15  16
ATOM     16  O   UNL d   1      38.806  -7.196  -7.903  0.00  0.00    -0.261 OA
ATOM     17  C   UNL d   1      38.456  -6.679  -9.199  0.00  0.00     0.240 C 
ENDBRANCH  15  16
BRANCH  14  18
ATOM     18  C   UNL d   1      42.120  -8.574  -7.621  0.00  0.00     0.102 A 
ATOM     19  N   UNL d   1      42.917  -9.248  -6.713  0.00  0.00    -0.222 NA
ATOM     20  C   UNL d   1      44.133  -9.370  -7.180  0.00  0.00     0.164 A 
ATOM     21  S   UNL d   1      44.428  -8.624  -8.699  0.00  0.00    -0.062 SA
ATOM     22  C   UNL d   1      42.792  -8.132  -8.755  0.00  0.00     0.087 A 
BRANCH  20  23
ATOM     23  N   UNL d   1      45.082 -10.050  -6.541  0.00  0.00    -0.378 N 
ATOM     24  H   UNL d   1      45.292 -10.998  -6.838  0.00  0.00     0.158 HD
ATOM     25  H   UNL d   1      45.877  -9.522  -6.210  0.00  0.00     0.158 HD
ENDBRANCH  20  23
ENDBRANCH  14  18
ENDBRANCH  11  14
ENDBRANCH   5  10
BRANCH   7  26
ATOM     26  C   UNL d   1      40.938  -6.793  -0.645  0.00  0.00     0.194 C 
ATOM     27  OXT UNL d   1      41.549  -7.621   0.009  0.00  0.00    -0.645 OA
BRANCH  26  28
ATOM     28  O   UNL d   1      41.178  -5.474  -0.481  0.00  0.00    -0.772 OA
ATOM     29  H   UNL d   1      42.046  -5.251  -0.081  0.00  0.00     0.167 HD
ENDBRANCH  26  28
ENDBRANCH   7  26
BRANCH   8  30
ATOM     30  C   UNL d   1      38.090  -6.275   0.150  0.00  0.00     0.216 C 
BRANCH  30  31
ATOM     31  O   UNL d   1      37.521  -7.332   0.941  0.00  0.00    -0.317 OA
BRANCH  31  32
ATOM     32  C   UNL d   1      38.184  -7.666   2.079  0.00  0.00     0.255 C 
ATOM     33  O   UNL d   1      39.243  -7.189   2.453  0.00  0.00    -0.266 OA
ATOM     34  C   UNL d   1      37.410  -8.710   2.830  0.00  0.00     0.126 C 
ENDBRANCH  31  32
ENDBRANCH  30  31
ENDBRANCH   8  30
TORSDOF 10
ENDMDL
MODEL 9
REMARK VINA RESULT:      -6.4      3.757      9.043
REMARK  10 active torsions:
REMARK  status: ('A' for Active; 'I' for Inactive)
REMARK    1  A    between atoms: O_4  and  C_21 
REMARK    2  A    between atoms: O_4  and  C_26 
REMARK    3  A    between atoms: O_5  and  C_22 
REMARK    4  A    between atoms: O_8  and  N_12 
REMARK    5  A    between atoms: CA_16  and  N_11 
REMARK       I    between atoms: N_11  and  C_23 
REMARK    6  A    between atoms: N_14  and  C_29 
REMARK    7  A    between atoms: CA_18  and  C_22 
REMARK    8  A    between atoms: C_19  and  C_21 
REMARK    9  A    between atoms: C_23  and  C_24 
REMARK   10  A    between atoms: C_24  and  C_25 
ROOT
ATOM      1  S   UNL d   1      39.435  -8.906  -7.723  0.00  0.00    -0.136 SA
ATOM      2  O   UNL d   1      35.467  -7.810  -7.083  0.00  0.00    -0.271 OA
ATOM      3  N   UNL d   1      37.609  -7.003  -7.469  0.00  0.00    -0.293 N 
ATOM      4  C   UNL d   1      38.707  -7.579  -6.706  0.00  0.00     0.187 C 
ATOM      5  CA  UNL d   1      37.615  -7.976  -5.639  0.00  0.00     0.211 C 
ATOM      6  C   UNL d   1      36.627  -7.704  -6.811  0.00  0.00     0.251 C 
ATOM      7  CA  UNL d   1      37.695  -6.566  -8.769  0.00  0.00     0.117 C 
ATOM      8  C   UNL d   1      38.773  -6.884  -9.536  0.00  0.00    -0.013 C 
ATOM      9  C   UNL d   1      39.918  -7.754  -9.054  0.00  0.00     0.115 C 
ENDROOT
BRANCH   5  10
ATOM     10  N   UNL d   1      37.809  -9.287  -4.949  0.00  0.00    -0.339 N 
ATOM     11  C   UNL d   1      37.278  -9.458  -3.643  0.00  0.00     0.275 C 
ATOM     12  O   UNL d   1      37.427 -10.510  -3.040  0.00  0.00    -0.266 OA
ATOM     13  H   UNL d   1      38.065 -10.128  -5.464  0.00  0.00     0.163 HD
BRANCH  11  14
ATOM     14  C   UNL d   1      36.565  -8.244  -2.986  0.00  0.00     0.180 C 
ATOM     15  N   UNL d   1      35.353  -7.816  -3.222  0.00  0.00    -0.126 NA
BRANCH  15  16
ATOM     16  O   UNL d   1      34.648  -8.449  -4.246  0.00  0.00    -0.261 OA
ATOM     17  C   UNL d   1      33.606  -9.234  -3.640  0.00  0.00     0.240 C 
ENDBRANCH  15  16
BRANCH  14  18
ATOM     18  C   UNL d   1      37.284  -7.385  -2.037  0.00  0.00     0.102 A 
ATOM     19  N   UNL d   1      36.695  -6.955  -0.862  0.00  0.00    -0.222 NA
ATOM     20  C   UNL d   1      37.582  -6.368  -0.098  0.00  0.00     0.164 A 
ATOM     21  S   UNL d   1      39.159  -6.222  -0.763  0.00  0.00    -0.062 SA
ATOM     22  C   UNL d   1      38.625  -7.042  -2.165  0.00  0.00     0.087 A 
BRANCH  20  23
ATOM     23  N   UNL d   1      37.298  -5.933   1.127  0.00  0.00    -0.378 N 
ATOM     24  H   UNL d   1      36.441  -5.410   1.276  0.00  0.00     0.158 HD
ATOM     25  H   UNL d   1      37.574  -6.525   1.897  0.00  0.00     0.158 HD
ENDBRANCH  20  23
ENDBRANCH  14  18
ENDBRANCH  11  14
ENDBRANCH   5  10
BRANCH   7  26
ATOM     26  C   UNL d   1      36.634  -5.599  -9.250  0.00  0.00     0.194 C 
ATOM     27  OXT UNL d   1      36.575  -4.431  -8.904  0.00  0.00    -0.645 OA
BRANCH  26  28
ATOM     28  O   UNL d   1      35.644  -6.150  -9.985  0.00  0.00    -0.772 OA
ATOM     29  H   UNL d   1      35.899  -6.939 -10.509  0.00  0.00     0.167 HD
ENDBRANCH  26  28
ENDBRANCH   7  26
BRANCH   8  30
ATOM     30  C   UNL d   1      38.912  -6.479 -10.996  0.00  0.00     0.216 C 
BRANCH  30  31
ATOM     31  O   UNL d   1      40.122  -7.023 -11.547  0.00  0.00    -0.317 OA
BRANCH  31  32
ATOM     32  C   UNL d   1      40.031  -7.589 -12.780  0.00  0.00     0.255 C 
ATOM     33  O   UNL d   1      40.914  -7.609 -13.621  0.00  0.00    -0.266 OA
ATOM     34  C   UNL d   1      38.677  -8.210 -12.954  0.00  0.00     0.126 C 
ENDBRANCH  31  32
ENDBRANCH  30  31
ENDBRANCH   8  30
TORSDOF 10
ENDMDL
