MODEL 1
REMARK VINA RESULT:      -7.6      0.000      0.000
REMARK  10 active torsions:
REMARK  status: ('A' for Active; 'I' for Inactive)
REMARK    1  A    between atoms: O_4  and  C_21 
REMARK    2  A    between atoms: O_4  and  C_26 
REMARK    3  A    between atoms: O_5  and  C_22 
REMARK    4  A    between atoms: O_8  and  N_12 
REMARK    5  A    between atoms: CA_16  and  N_11 
REMARK       I    between atoms: N_11  and  C_23 
REMARK    6  A    between atoms: N_14  and  C_29 
REMARK    7  A    between atoms: CA_18  and  C_22 
REMARK    8  A    between atoms: C_19  and  C_21 
REMARK    9  A    between atoms: C_23  and  C_24 
REMARK   10  A    between atoms: C_24  and  C_25 
ROOT
ATOM      1  S   UNL d   1      38.584  -9.631  -1.973  0.00  0.00    -0.136 SA
ATOM      2  O   UNL d   1      41.937  -7.325  -2.821  0.00  0.00    -0.271 OA
ATOM      3  N   UNL d   1      39.713  -7.228  -2.121  0.00  0.00    -0.293 N 
ATOM      4  C   UNL d   1      38.738  -8.037  -2.840  0.00  0.00     0.187 C 
ATOM      5  CA  UNL d   1      39.725  -7.973  -4.057  0.00  0.00     0.211 C 
ATOM      6  C   UNL d   1      40.745  -7.516  -2.967  0.00  0.00     0.251 C 
ATOM      7  CA  UNL d   1      39.678  -7.001  -0.767  0.00  0.00     0.117 C 
ATOM      8  C   UNL d   1      38.856  -7.730   0.045  0.00  0.00    -0.013 C 
ATOM      9  C   UNL d   1      37.966  -8.853  -0.451  0.00  0.00     0.115 C 
ENDROOT
BRANCH   5  10
ATOM     10  N   UNL d   1      39.857  -9.220  -4.870  0.00  0.00    -0.339 N 
ATOM     11  C   UNL d   1      39.152  -9.308  -6.080  0.00  0.00     0.275 C 
ATOM     12  O   UNL d   1      39.212 -10.311  -6.784  0.00  0.00    -0.266 OA
ATOM     13  H   UNL d   1      40.654  -9.845  -4.755  0.00  0.00     0.163 HD
BRANCH  11  14
ATOM     14  C   UNL d   1      38.248  -8.116  -6.456  0.00  0.00     0.180 C 
ATOM     15  N   UNL d   1      38.565  -7.126  -7.247  0.00  0.00    -0.126 NA
BRANCH  15  16
ATOM     16  O   UNL d   1      39.854  -7.153  -7.772  0.00  0.00    -0.261 OA
ATOM     17  C   UNL d   1      39.739  -7.554  -9.143  0.00  0.00     0.240 C 
ENDBRANCH  15  16
BRANCH  14  18
ATOM     18  C   UNL d   1      36.911  -7.982  -5.875  0.00  0.00     0.102 A 
ATOM     19  N   UNL d   1      36.381  -8.949  -5.029  0.00  0.00    -0.222 NA
ATOM     20  C   UNL d   1      35.254  -8.526  -4.516  0.00  0.00     0.164 A 
ATOM     21  S   UNL d   1      34.710  -6.994  -5.062  0.00  0.00    -0.062 SA
ATOM     22  C   UNL d   1      36.108  -6.863  -6.033  0.00  0.00     0.087 A 
BRANCH  20  23
ATOM     23  N   UNL d   1      34.571  -9.219  -3.600  0.00  0.00    -0.378 N 
ATOM     24  H   UNL d   1      35.051  -9.918  -3.049  0.00  0.00     0.158 HD
ATOM     25  H   UNL d   1      33.794  -8.760  -3.140  0.00  0.00     0.158 HD
ENDBRANCH  20  23
ENDBRANCH  14  18
ENDBRANCH  11  14
ENDBRANCH   5  10
BRANCH   7  26
ATOM     26  C   UNL d   1      40.460  -5.826  -0.215  0.00  0.00     0.194 C 
ATOM     27  OXT UNL d   1      39.946  -4.773   0.137  0.00  0.00    -0.645 OA
BRANCH  26  28
ATOM     28  O   UNL d   1      41.797  -5.955  -0.272  0.00  0.00    -0.772 OA
ATOM     29  H   UNL d   1      42.188  -5.902  -1.171  0.00  0.00     0.167 HD
ENDBRANCH  26  28
ENDBRANCH   7  26
BRANCH   8  30
ATOM     30  C   UNL d   1      38.785  -7.559   1.553  0.00  0.00     0.216 C 
BRANCH  30  31
ATOM     31  O   UNL d   1      37.464  -7.143   1.940  0.00  0.00    -0.317 OA
BRANCH  31  32
ATOM     32  C   UNL d   1      36.992  -7.647   3.110  0.00  0.00     0.255 C 
ATOM     33  O   UNL d   1      36.312  -7.039   3.923  0.00  0.00    -0.266 OA
ATOM     34  C   UNL d   1      37.418  -9.075   3.258  0.00  0.00     0.126 C 
ENDBRANCH  31  32
ENDBRANCH  30  31
ENDBRANCH   8  30
TORSDOF 10
ENDMDL
MODEL 2
REMARK VINA RESULT:      -7.2      3.612      6.406
REMARK  10 active torsions:
REMARK  status: ('A' for Active; 'I' for Inactive)
REMARK    1  A    between atoms: O_4  and  C_21 
REMARK    2  A    between atoms: O_4  and  C_26 
REMARK    3  A    between atoms: O_5  and  C_22 
REMARK    4  A    between atoms: O_8  and  N_12 
REMARK    5  A    between atoms: CA_16  and  N_11 
REMARK       I    between atoms: N_11  and  C_23 
REMARK    6  A    between atoms: N_14  and  C_29 
REMARK    7  A    between atoms: CA_18  and  C_22 
REMARK    8  A    between atoms: C_19  and  C_21 
REMARK    9  A    between atoms: C_23  and  C_24 
REMARK   10  A    between atoms: C_24  and  C_25 
ROOT
ATOM      1  S   UNL d   1      38.310 -10.839  -3.914  0.00  0.00    -0.136 SA
ATOM      2  O   UNL d   1      39.876  -8.747  -0.681  0.00  0.00    -0.271 OA
ATOM      3  N   UNL d   1      38.917  -8.504  -2.794  0.00  0.00    -0.293 N 
ATOM      4  C   UNL d   1      39.392  -9.376  -3.862  0.00  0.00     0.187 C 
ATOM      5  CA  UNL d   1      40.723  -9.495  -3.040  0.00  0.00     0.211 C 
ATOM      6  C   UNL d   1      39.842  -8.926  -1.883  0.00  0.00     0.251 C 
ATOM      7  CA  UNL d   1      37.611  -8.104  -2.651  0.00  0.00     0.117 C 
ATOM      8  C   UNL d   1      36.611  -8.700  -3.366  0.00  0.00    -0.013 C 
ATOM      9  C   UNL d   1      36.838  -9.855  -4.323  0.00  0.00     0.115 C 
ENDROOT
BRANCH   5  10
ATOM     10  N   UNL d   1      41.374 -10.839  -3.024  0.00  0.00    -0.339 N 
ATOM     11  C   UNL d   1      42.749 -10.921  -3.297  0.00  0.00     0.275 C 
ATOM     12  O   UNL d   1      43.336 -11.998  -3.311  0.00  0.00    -0.266 OA
ATOM     13  H   UNL d   1      40.957 -11.624  -2.526  0.00  0.00     0.163 HD
BRANCH  11  14
ATOM     14  C   UNL d   1      43.476  -9.605  -3.642  0.00  0.00     0.180 C 
ATOM     15  N   UNL d   1      43.506  -9.023  -4.811  0.00  0.00    -0.126 NA
BRANCH  15  16
ATOM     16  O   UNL d   1      42.833  -9.680  -5.838  0.00  0.00    -0.261 OA
ATOM     17  C   UNL d   1      42.037  -8.697  -6.512  0.00  0.00     0.240 C 
ENDBRANCH  15  16
BRANCH  14  18
ATOM     18  C   UNL d   1      44.271  -8.905  -2.632  0.00  0.00     0.102 A 
ATOM     19  N   UNL d   1      43.837  -7.718  -2.052  0.00  0.00    -0.222 NA
ATOM     20  C   UNL d   1      44.634  -7.381  -1.071  0.00  0.00     0.164 A 
ATOM     21  S   UNL d   1      45.991  -8.399  -0.824  0.00  0.00    -0.062 SA
ATOM     22  C   UNL d   1      45.455  -9.396  -2.102  0.00  0.00     0.087 A 
BRANCH  20  23
ATOM     23  N   UNL d   1      44.404  -6.327  -0.282  0.00  0.00    -0.378 N 
ATOM     24  H   UNL d   1      45.148  -5.663  -0.113  0.00  0.00     0.158 HD
ATOM     25  H   UNL d   1      43.467  -5.943  -0.265  0.00  0.00     0.158 HD
ENDBRANCH  20  23
ENDBRANCH  14  18
ENDBRANCH  11  14
ENDBRANCH   5  10
BRANCH   7  26
ATOM     26  C   UNL d   1      37.323  -6.887  -1.795  0.00  0.00     0.194 C 
ATOM     27  OXT UNL d   1      36.891  -6.947  -0.652  0.00  0.00    -0.645 OA
BRANCH  26  28
ATOM     28  O   UNL d   1      37.434  -5.706  -2.428  0.00  0.00    -0.772 OA
ATOM     29  H   UNL d   1      37.007  -4.944  -1.980  0.00  0.00     0.167 HD
ENDBRANCH  26  28
ENDBRANCH   7  26
BRANCH   8  30
ATOM     30  C   UNL d   1      35.143  -8.333  -3.239  0.00  0.00     0.216 C 
BRANCH  30  31
ATOM     31  O   UNL d   1      34.625  -7.926  -4.517  0.00  0.00    -0.317 OA
BRANCH  31  32
ATOM     32  C   UNL d   1      35.082  -6.744  -5.005  0.00  0.00     0.255 C 
ATOM     33  O   UNL d   1      35.182  -5.703  -4.370  0.00  0.00    -0.266 OA
ATOM     34  C   UNL d   1      35.462  -6.899  -6.445  0.00  0.00     0.126 C 
ENDBRANCH  31  32
ENDBRANCH  30  31
ENDBRANCH   8  30
TORSDOF 10
ENDMDL
MODEL 3
REMARK VINA RESULT:      -7.2      1.698      2.529
REMARK  10 active torsions:
REMARK  status: ('A' for Active; 'I' for Inactive)
REMARK    1  A    between atoms: O_4  and  C_21 
REMARK    2  A    between atoms: O_4  and  C_26 
REMARK    3  A    between atoms: O_5  and  C_22 
REMARK    4  A    between atoms: O_8  and  N_12 
REMARK    5  A    between atoms: CA_16  and  N_11 
REMARK       I    between atoms: N_11  and  C_23 
REMARK    6  A    between atoms: N_14  and  C_29 
REMARK    7  A    between atoms: CA_18  and  C_22 
REMARK    8  A    between atoms: C_19  and  C_21 
REMARK    9  A    between atoms: C_23  and  C_24 
REMARK   10  A    between atoms: C_24  and  C_25 
ROOT
ATOM      1  S   UNL d   1      37.937  -9.349  -2.087  0.00  0.00    -0.136 SA
ATOM      2  O   UNL d   1      41.726  -7.902  -2.999  0.00  0.00    -0.271 OA
ATOM      3  N   UNL d   1      39.594  -7.278  -2.282  0.00  0.00    -0.293 N 
ATOM      4  C   UNL d   1      38.448  -7.848  -2.980  0.00  0.00     0.187 C 
ATOM      5  CA  UNL d   1      39.409  -8.032  -4.206  0.00  0.00     0.211 C 
ATOM      6  C   UNL d   1      40.521  -7.811  -3.132  0.00  0.00     0.251 C 
ATOM      7  CA  UNL d   1      39.629  -7.032  -0.932  0.00  0.00     0.117 C 
ATOM      8  C   UNL d   1      38.669  -7.538  -0.101  0.00  0.00    -0.013 C 
ATOM      9  C   UNL d   1      37.536  -8.428  -0.572  0.00  0.00     0.115 C 
ENDROOT
BRANCH   5  10
ATOM     10  N   UNL d   1      39.237  -9.286  -5.000  0.00  0.00    -0.339 N 
ATOM     11  C   UNL d   1      39.465  -9.238  -6.384  0.00  0.00     0.275 C 
ATOM     12  O   UNL d   1      39.328 -10.232  -7.090  0.00  0.00    -0.266 OA
ATOM     13  H   UNL d   1      39.281 -10.203  -4.558  0.00  0.00     0.163 HD
BRANCH  11  14
ATOM     14  C   UNL d   1      39.832  -7.868  -6.990  0.00  0.00     0.180 C 
ATOM     15  N   UNL d   1      41.014  -7.312  -6.983  0.00  0.00    -0.126 NA
BRANCH  15  16
ATOM     16  O   UNL d   1      42.021  -8.028  -6.341  0.00  0.00    -0.261 OA
ATOM     17  C   UNL d   1      42.978  -8.394  -7.343  0.00  0.00     0.240 C 
ENDBRANCH  15  16
BRANCH  14  18
ATOM     18  C   UNL d   1      38.805  -7.026  -7.607  0.00  0.00     0.102 A 
ATOM     19  N   UNL d   1      38.889  -6.626  -8.936  0.00  0.00    -0.222 NA
ATOM     20  C   UNL d   1      37.782  -6.026  -9.293  0.00  0.00     0.164 A 
ATOM     21  S   UNL d   1      36.607  -5.826  -8.062  0.00  0.00    -0.062 SA
ATOM     22  C   UNL d   1      37.637  -6.639  -6.969  0.00  0.00     0.087 A 
BRANCH  20  23
ATOM     23  N   UNL d   1      37.555  -5.615 -10.544  0.00  0.00    -0.378 N 
ATOM     24  H   UNL d   1      36.678  -5.159 -10.764  0.00  0.00     0.158 HD
ATOM     25  H   UNL d   1      38.349  -5.319 -11.098  0.00  0.00     0.158 HD
ENDBRANCH  20  23
ENDBRANCH  14  18
ENDBRANCH  11  14
ENDBRANCH   5  10
BRANCH   7  26
ATOM     26  C   UNL d   1      40.670  -6.065  -0.405  0.00  0.00     0.194 C 
ATOM     27  OXT UNL d   1      40.461  -4.872  -0.227  0.00  0.00    -0.645 OA
BRANCH  26  28
ATOM     28  O   UNL d   1      41.908  -6.574  -0.279  0.00  0.00    -0.772 OA
ATOM     29  H   UNL d   1      42.034  -7.199   0.468  0.00  0.00     0.167 HD
ENDBRANCH  26  28
ENDBRANCH   7  26
BRANCH   8  30
ATOM     30  C   UNL d   1      38.658  -7.335   1.405  0.00  0.00     0.216 C 
BRANCH  30  31
ATOM     31  O   UNL d   1      37.325  -7.035   1.851  0.00  0.00    -0.317 OA
BRANCH  31  32
ATOM     32  C   UNL d   1      36.950  -7.579   3.038  0.00  0.00     0.255 C 
ATOM     33  O   UNL d   1      36.285  -7.020   3.899  0.00  0.00    -0.266 OA
ATOM     34  C   UNL d   1      37.464  -8.982   3.141  0.00  0.00     0.126 C 
ENDBRANCH  31  32
ENDBRANCH  30  31
ENDBRANCH   8  30
TORSDOF 10
ENDMDL
MODEL 4
REMARK VINA RESULT:      -7.2      2.780      8.349
REMARK  10 active torsions:
REMARK  status: ('A' for Active; 'I' for Inactive)
REMARK    1  A    between atoms: O_4  and  C_21 
REMARK    2  A    between atoms: O_4  and  C_26 
REMARK    3  A    between atoms: O_5  and  C_22 
REMARK    4  A    between atoms: O_8  and  N_12 
REMARK    5  A    between atoms: CA_16  and  N_11 
REMARK       I    between atoms: N_11  and  C_23 
REMARK    6  A    between atoms: N_14  and  C_29 
REMARK    7  A    between atoms: CA_18  and  C_22 
REMARK    8  A    between atoms: C_19  and  C_21 
REMARK    9  A    between atoms: C_23  and  C_24 
REMARK   10  A    between atoms: C_24  and  C_25 
ROOT
ATOM      1  S   UNL d   1      36.087  -6.217  -5.289  0.00  0.00    -0.136 SA
ATOM      2  O   UNL d   1      40.226  -6.526  -5.514  0.00  0.00    -0.271 OA
ATOM      3  N   UNL d   1      38.229  -7.661  -5.923  0.00  0.00    -0.293 N 
ATOM      4  C   UNL d   1      37.194  -7.608  -4.897  0.00  0.00     0.187 C 
ATOM      5  CA  UNL d   1      38.355  -7.338  -3.877  0.00  0.00     0.211 C 
ATOM      6  C   UNL d   1      39.167  -7.013  -5.171  0.00  0.00     0.251 C 
ATOM      7  CA  UNL d   1      37.976  -7.653  -7.273  0.00  0.00     0.117 C 
ATOM      8  C   UNL d   1      36.735  -7.344  -7.753  0.00  0.00    -0.013 C 
ATOM      9  C   UNL d   1      35.567  -6.950  -6.869  0.00  0.00     0.115 C 
ENDROOT
BRANCH   5  10
ATOM     10  N   UNL d   1      38.067  -6.355  -2.790  0.00  0.00    -0.339 N 
ATOM     11  C   UNL d   1      38.708  -6.518  -1.552  0.00  0.00     0.275 C 
ATOM     12  O   UNL d   1      38.501  -5.749  -0.618  0.00  0.00    -0.266 OA
ATOM     13  H   UNL d   1      37.698  -5.428  -2.999  0.00  0.00     0.163 HD
BRANCH  11  14
ATOM     14  C   UNL d   1      39.633  -7.742  -1.396  0.00  0.00     0.180 C 
ATOM     15  N   UNL d   1      39.260  -8.960  -1.111  0.00  0.00    -0.126 NA
BRANCH  15  16
ATOM     16  O   UNL d   1      37.895  -9.149  -0.907  0.00  0.00    -0.261 OA
ATOM     17  C   UNL d   1      37.472 -10.167  -1.823  0.00  0.00     0.240 C 
ENDBRANCH  15  16
BRANCH  14  18
ATOM     18  C   UNL d   1      41.085  -7.599  -1.515  0.00  0.00     0.102 A 
ATOM     19  N   UNL d   1      41.818  -6.813  -0.633  0.00  0.00    -0.222 NA
ATOM     20  C   UNL d   1      43.099  -6.979  -0.845  0.00  0.00     0.164 A 
ATOM     21  S   UNL d   1      43.516  -8.009  -2.150  0.00  0.00    -0.062 SA
ATOM     22  C   UNL d   1      41.857  -8.293  -2.435  0.00  0.00     0.087 A 
BRANCH  20  23
ATOM     23  N   UNL d   1      44.037  -6.410  -0.082  0.00  0.00    -0.378 N 
ATOM     24  H   UNL d   1      45.010  -6.635  -0.243  0.00  0.00     0.158 HD
ATOM     25  H   UNL d   1      43.859  -5.477   0.272  0.00  0.00     0.158 HD
ENDBRANCH  20  23
ENDBRANCH  14  18
ENDBRANCH  11  14
ENDBRANCH   5  10
BRANCH   7  26
ATOM     26  C   UNL d   1      39.064  -8.140  -8.209  0.00  0.00     0.194 C 
ATOM     27  OXT UNL d   1      39.205  -9.310  -8.537  0.00  0.00    -0.645 OA
BRANCH  26  28
ATOM     28  O   UNL d   1      39.975  -7.213  -8.552  0.00  0.00    -0.772 OA
ATOM     29  H   UNL d   1      39.903  -6.868  -9.469  0.00  0.00     0.167 HD
ENDBRANCH  26  28
ENDBRANCH   7  26
BRANCH   8  30
ATOM     30  C   UNL d   1      36.388  -7.285  -9.231  0.00  0.00     0.216 C 
BRANCH  30  31
ATOM     31  O   UNL d   1      36.503  -5.935  -9.710  0.00  0.00    -0.317 OA
BRANCH  31  32
ATOM     32  C   UNL d   1      37.462  -5.707 -10.645  0.00  0.00     0.255 C 
ATOM     33  O   UNL d   1      38.579  -5.262 -10.426  0.00  0.00    -0.266 OA
ATOM     34  C   UNL d   1      36.953  -6.093 -12.000  0.00  0.00     0.126 C 
ENDBRANCH  31  32
ENDBRANCH  30  31
ENDBRANCH   8  30
TORSDOF 10
ENDMDL
MODEL 5
REMARK VINA RESULT:      -7.0      3.589      8.572
REMARK  10 active torsions:
REMARK  status: ('A' for Active; 'I' for Inactive)
REMARK    1  A    between atoms: O_4  and  C_21 
REMARK    2  A    between atoms: O_4  and  C_26 
REMARK    3  A    between atoms: O_5  and  C_22 
REMARK    4  A    between atoms: O_8  and  N_12 
REMARK    5  A    between atoms: CA_16  and  N_11 
REMARK       I    between atoms: N_11  and  C_23 
REMARK    6  A    between atoms: N_14  and  C_29 
REMARK    7  A    between atoms: CA_18  and  C_22 
REMARK    8  A    between atoms: C_19  and  C_21 
REMARK    9  A    between atoms: C_23  and  C_24 
REMARK   10  A    between atoms: C_24  and  C_25 
ROOT
ATOM      1  S   UNL d   1      39.576  -8.886  -7.486  0.00  0.00    -0.136 SA
ATOM      2  O   UNL d   1      35.599  -8.083  -6.580  0.00  0.00    -0.271 OA
ATOM      3  N   UNL d   1      37.643  -7.096  -7.123  0.00  0.00    -0.293 N 
ATOM      4  C   UNL d   1      38.837  -7.587  -6.447  0.00  0.00     0.187 C 
ATOM      5  CA  UNL d   1      37.877  -8.048  -5.295  0.00  0.00     0.211 C 
ATOM      6  C   UNL d   1      36.776  -7.848  -6.384  0.00  0.00     0.251 C 
ATOM      7  CA  UNL d   1      37.612  -6.693  -8.436  0.00  0.00     0.117 C 
ATOM      8  C   UNL d   1      38.656  -6.960  -9.277  0.00  0.00    -0.013 C 
ATOM      9  C   UNL d   1      39.888  -7.741  -8.863  0.00  0.00     0.115 C 
ENDROOT
BRANCH   5  10
ATOM     10  N   UNL d   1      38.198  -9.354  -4.647  0.00  0.00    -0.339 N 
ATOM     11  C   UNL d   1      37.672  -9.618  -3.373  0.00  0.00     0.275 C 
ATOM     12  O   UNL d   1      37.911 -10.668  -2.786  0.00  0.00    -0.266 OA
ATOM     13  H   UNL d   1      38.497 -10.159  -5.197  0.00  0.00     0.163 HD
BRANCH  11  14
ATOM     14  C   UNL d   1      36.832  -8.504  -2.715  0.00  0.00     0.180 C 
ATOM     15  N   UNL d   1      35.564  -8.269  -2.922  0.00  0.00    -0.126 NA
BRANCH  15  16
ATOM     16  O   UNL d   1      34.932  -9.097  -3.846  0.00  0.00    -0.261 OA
ATOM     17  C   UNL d   1      33.521  -8.943  -3.649  0.00  0.00     0.240 C 
ENDBRANCH  15  16
BRANCH  14  18
ATOM     18  C   UNL d   1      37.451  -7.547  -1.796  0.00  0.00     0.102 A 
ATOM     19  N   UNL d   1      36.780  -7.069  -0.677  0.00  0.00    -0.222 NA
ATOM     20  C   UNL d   1      37.595  -6.363   0.065  0.00  0.00     0.164 A 
ATOM     21  S   UNL d   1      39.180  -6.153  -0.552  0.00  0.00    -0.062 SA
ATOM     22  C   UNL d   1      38.764  -7.113  -1.901  0.00  0.00     0.087 A 
BRANCH  20  23
ATOM     23  N   UNL d   1      37.237  -5.855   1.249  0.00  0.00    -0.378 N 
ATOM     24  H   UNL d   1      36.601  -6.375   1.839  0.00  0.00     0.158 HD
ATOM     25  H   UNL d   1      37.908  -5.275   1.738  0.00  0.00     0.158 HD
ENDBRANCH  20  23
ENDBRANCH  14  18
ENDBRANCH  11  14
ENDBRANCH   5  10
BRANCH   7  26
ATOM     26  C   UNL d   1      36.462  -5.817  -8.891  0.00  0.00     0.194 C 
ATOM     27  OXT UNL d   1      36.443  -4.600  -8.764  0.00  0.00    -0.645 OA
BRANCH  26  28
ATOM     28  O   UNL d   1      35.376  -6.482  -9.320  0.00  0.00    -0.772 OA
ATOM     29  H   UNL d   1      34.568  -5.937  -9.444  0.00  0.00     0.167 HD
ENDBRANCH  26  28
ENDBRANCH   7  26
BRANCH   8  30
ATOM     30  C   UNL d   1      38.680  -6.574 -10.746  0.00  0.00     0.216 C 
BRANCH  30  31
ATOM     31  O   UNL d   1      39.065  -5.196 -10.886  0.00  0.00    -0.317 OA
BRANCH  31  32
ATOM     32  C   UNL d   1      39.118  -4.711 -12.155  0.00  0.00     0.255 C 
ATOM     33  O   UNL d   1      39.928  -3.895 -12.571  0.00  0.00    -0.266 OA
ATOM     34  C   UNL d   1      38.039  -5.335 -12.984  0.00  0.00     0.126 C 
ENDBRANCH  31  32
ENDBRANCH  30  31
ENDBRANCH   8  30
TORSDOF 10
ENDMDL
MODEL 6
REMARK VINA RESULT:      -6.9      2.719      4.263
REMARK  10 active torsions:
REMARK  status: ('A' for Active; 'I' for Inactive)
REMARK    1  A    between atoms: O_4  and  C_21 
REMARK    2  A    between atoms: O_4  and  C_26 
REMARK    3  A    between atoms: O_5  and  C_22 
REMARK    4  A    between atoms: O_8  and  N_12 
REMARK    5  A    between atoms: CA_16  and  N_11 
REMARK       I    between atoms: N_11  and  C_23 
REMARK    6  A    between atoms: N_14  and  C_29 
REMARK    7  A    between atoms: CA_18  and  C_22 
REMARK    8  A    between atoms: C_19  and  C_21 
REMARK    9  A    between atoms: C_23  and  C_24 
REMARK   10  A    between atoms: C_24  and  C_25 
ROOT
ATOM      1  S   UNL d   1      37.523  -8.304  -3.459  0.00  0.00    -0.136 SA
ATOM      2  O   UNL d   1      41.425  -9.393  -2.525  0.00  0.00    -0.271 OA
ATOM      3  N   UNL d   1      39.996  -7.571  -2.810  0.00  0.00    -0.293 N 
ATOM      4  C   UNL d   1      39.111  -7.574  -3.969  0.00  0.00     0.187 C 
ATOM      5  CA  UNL d   1      40.158  -8.529  -4.644  0.00  0.00     0.211 C 
ATOM      6  C   UNL d   1      40.669  -8.700  -3.179  0.00  0.00     0.251 C 
ATOM      7  CA  UNL d   1      39.649  -7.075  -1.578  0.00  0.00     0.117 C 
ATOM      8  C   UNL d   1      38.349  -6.772  -1.283  0.00  0.00    -0.013 C 
ATOM      9  C   UNL d   1      37.198  -6.990  -2.247  0.00  0.00     0.115 C 
ENDROOT
BRANCH   5  10
ATOM     10  N   UNL d   1      39.603  -9.634  -5.481  0.00  0.00    -0.339 N 
ATOM     11  C   UNL d   1      39.853  -9.619  -6.862  0.00  0.00     0.275 C 
ATOM     12  O   UNL d   1      39.413 -10.493  -7.602  0.00  0.00    -0.266 OA
ATOM     13  H   UNL d   1      39.343 -10.530  -5.070  0.00  0.00     0.163 HD
BRANCH  11  14
ATOM     14  C   UNL d   1      40.650  -8.422  -7.419  0.00  0.00     0.180 C 
ATOM     15  N   UNL d   1      40.159  -7.263  -7.767  0.00  0.00    -0.126 NA
BRANCH  15  16
ATOM     16  O   UNL d   1      38.780  -7.121  -7.642  0.00  0.00    -0.261 OA
ATOM     17  C   UNL d   1      38.254  -6.955  -8.965  0.00  0.00     0.240 C 
ENDBRANCH  15  16
BRANCH  14  18
ATOM     18  C   UNL d   1      42.091  -8.529  -7.654  0.00  0.00     0.102 A 
ATOM     19  N   UNL d   1      42.854  -7.431  -8.035  0.00  0.00    -0.222 NA
ATOM     20  C   UNL d   1      44.125  -7.743  -8.021  0.00  0.00     0.164 A 
ATOM     21  S   UNL d   1      44.493  -9.372  -7.635  0.00  0.00    -0.062 SA
ATOM     22  C   UNL d   1      42.827  -9.683  -7.430  0.00  0.00     0.087 A 
BRANCH  20  23
ATOM     23  N   UNL d   1      45.090  -6.851  -8.262  0.00  0.00    -0.378 N 
ATOM     24  H   UNL d   1      45.071  -6.321  -9.123  0.00  0.00     0.158 HD
ATOM     25  H   UNL d   1      45.508  -6.378  -7.469  0.00  0.00     0.158 HD
ENDBRANCH  20  23
ENDBRANCH  14  18
ENDBRANCH  11  14
ENDBRANCH   5  10
BRANCH   7  26
ATOM     26  C   UNL d   1      40.758  -6.732  -0.603  0.00  0.00     0.194 C 
ATOM     27  OXT UNL d   1      41.307  -5.640  -0.555  0.00  0.00    -0.645 OA
BRANCH  26  28
ATOM     28  O   UNL d   1      41.215  -7.766   0.125  0.00  0.00    -0.772 OA
ATOM     29  H   UNL d   1      42.177  -7.753   0.319  0.00  0.00     0.167 HD
ENDBRANCH  26  28
ENDBRANCH   7  26
BRANCH   8  30
ATOM     30  C   UNL d   1      37.885  -6.251   0.066  0.00  0.00     0.216 C 
BRANCH  30  31
ATOM     31  O   UNL d   1      37.417  -7.339   0.880  0.00  0.00    -0.317 OA
BRANCH  31  32
ATOM     32  C   UNL d   1      38.145  -7.615   1.994  0.00  0.00     0.255 C 
ATOM     33  O   UNL d   1      39.229  -7.125   2.275  0.00  0.00    -0.266 OA
ATOM     34  C   UNL d   1      37.416  -8.609   2.845  0.00  0.00     0.126 C 
ENDBRANCH  31  32
ENDBRANCH  30  31
ENDBRANCH   8  30
TORSDOF 10
ENDMDL
MODEL 7
REMARK VINA RESULT:      -6.9      2.766      3.893
REMARK  10 active torsions:
REMARK  status: ('A' for Active; 'I' for Inactive)
REMARK    1  A    between atoms: O_4  and  C_21 
REMARK    2  A    between atoms: O_4  and  C_26 
REMARK    3  A    between atoms: O_5  and  C_22 
REMARK    4  A    between atoms: O_8  and  N_12 
REMARK    5  A    between atoms: CA_16  and  N_11 
REMARK       I    between atoms: N_11  and  C_23 
REMARK    6  A    between atoms: N_14  and  C_29 
REMARK    7  A    between atoms: CA_18  and  C_22 
REMARK    8  A    between atoms: C_19  and  C_21 
REMARK    9  A    between atoms: C_23  and  C_24 
REMARK   10  A    between atoms: C_24  and  C_25 
ROOT
ATOM      1  S   UNL d   1      42.004  -7.562  -2.375  0.00  0.00    -0.136 SA
ATOM      2  O   UNL d   1      38.908  -6.893  -5.066  0.00  0.00    -0.271 OA
ATOM      3  N   UNL d   1      39.439  -7.859  -3.009  0.00  0.00    -0.293 N 
ATOM      4  C   UNL d   1      40.657  -8.655  -2.925  0.00  0.00     0.187 C 
ATOM      5  CA  UNL d   1      40.500  -8.881  -4.470  0.00  0.00     0.211 C 
ATOM      6  C   UNL d   1      39.518  -7.672  -4.359  0.00  0.00     0.251 C 
ATOM      7  CA  UNL d   1      38.977  -7.049  -2.000  0.00  0.00     0.117 C 
ATOM      8  C   UNL d   1      39.768  -6.741  -0.930  0.00  0.00    -0.013 C 
ATOM      9  C   UNL d   1      41.201  -7.215  -0.782  0.00  0.00     0.115 C 
ENDROOT
BRANCH   5  10
ATOM     10  N   UNL d   1      41.760  -8.877  -5.271  0.00  0.00    -0.339 N 
ATOM     11  C   UNL d   1      41.742  -9.454  -6.551  0.00  0.00     0.275 C 
ATOM     12  O   UNL d   1      42.749  -9.491  -7.251  0.00  0.00    -0.266 OA
ATOM     13  H   UNL d   1      42.510  -8.215  -5.076  0.00  0.00     0.163 HD
BRANCH  11  14
ATOM     14  C   UNL d   1      40.418 -10.097  -7.013  0.00  0.00     0.180 C 
ATOM     15  N   UNL d   1      39.925 -11.232  -6.598  0.00  0.00    -0.126 NA
BRANCH  15  16
ATOM     16  O   UNL d   1      40.694 -11.928  -5.667  0.00  0.00    -0.261 OA
ATOM     17  C   UNL d   1      39.806 -12.353  -4.625  0.00  0.00     0.240 C 
ENDBRANCH  15  16
BRANCH  14  18
ATOM     18  C   UNL d   1      39.602  -9.461  -8.049  0.00  0.00     0.102 A 
ATOM     19  N   UNL d   1      39.196  -8.135  -7.949  0.00  0.00    -0.222 NA
ATOM     20  C   UNL d   1      38.625  -7.757  -9.064  0.00  0.00     0.164 A 
ATOM     21  S   UNL d   1      38.457  -8.966 -10.268  0.00  0.00    -0.062 SA
ATOM     22  C   UNL d   1      39.246 -10.077  -9.239  0.00  0.00     0.087 A 
BRANCH  20  23
ATOM     23  N   UNL d   1      38.216  -6.502  -9.277  0.00  0.00    -0.378 N 
ATOM     24  H   UNL d   1      37.228  -6.290  -9.238  0.00  0.00     0.158 HD
ATOM     25  H   UNL d   1      38.835  -5.749  -9.001  0.00  0.00     0.158 HD
ENDBRANCH  20  23
ENDBRANCH  14  18
ENDBRANCH  11  14
ENDBRANCH   5  10
BRANCH   7  26
ATOM     26  C   UNL d   1      37.522  -6.626  -2.028  0.00  0.00     0.194 C 
ATOM     27  OXT UNL d   1      36.609  -7.304  -1.576  0.00  0.00    -0.645 OA
BRANCH  26  28
ATOM     28  O   UNL d   1      37.269  -5.505  -2.725  0.00  0.00    -0.772 OA
ATOM     29  H   UNL d   1      37.282  -4.672  -2.204  0.00  0.00     0.167 HD
ENDBRANCH  26  28
ENDBRANCH   7  26
BRANCH   8  30
ATOM     30  C   UNL d   1      39.339  -5.829   0.207  0.00  0.00     0.216 C 
BRANCH  30  31
ATOM     31  O   UNL d   1      39.215  -6.584   1.424  0.00  0.00    -0.317 OA
BRANCH  31  32
ATOM     32  C   UNL d   1      37.980  -7.072   1.707  0.00  0.00     0.255 C 
ATOM     33  O   UNL d   1      36.935  -6.440   1.653  0.00  0.00    -0.266 OA
ATOM     34  C   UNL d   1      38.078  -8.517   2.090  0.00  0.00     0.126 C 
ENDBRANCH  31  32
ENDBRANCH  30  31
ENDBRANCH   8  30
TORSDOF 10
ENDMDL
MODEL 8
REMARK VINA RESULT:      -6.9      3.117      8.024
REMARK  10 active torsions:
REMARK  status: ('A' for Active; 'I' for Inactive)
REMARK    1  A    between atoms: O_4  and  C_21 
REMARK    2  A    between atoms: O_4  and  C_26 
REMARK    3  A    between atoms: O_5  and  C_22 
REMARK    4  A    between atoms: O_8  and  N_12 
REMARK    5  A    between atoms: CA_16  and  N_11 
REMARK       I    between atoms: N_11  and  C_23 
REMARK    6  A    between atoms: N_14  and  C_29 
REMARK    7  A    between atoms: CA_18  and  C_22 
REMARK    8  A    between atoms: C_19  and  C_21 
REMARK    9  A    between atoms: C_23  and  C_24 
REMARK   10  A    between atoms: C_24  and  C_25 
ROOT
ATOM      1  S   UNL d   1      40.019  -8.944  -6.747  0.00  0.00    -0.136 SA
ATOM      2  O   UNL d   1      36.219  -8.665  -5.085  0.00  0.00    -0.271 OA
ATOM      3  N   UNL d   1      37.980  -7.420  -5.976  0.00  0.00    -0.293 N 
ATOM      4  C   UNL d   1      39.334  -7.756  -5.551  0.00  0.00     0.187 C 
ATOM      5  CA  UNL d   1      38.677  -8.340  -4.251  0.00  0.00     0.211 C 
ATOM      6  C   UNL d   1      37.372  -8.281  -5.107  0.00  0.00     0.251 C 
ATOM      7  CA  UNL d   1      37.650  -7.020  -7.247  0.00  0.00     0.117 C 
ATOM      8  C   UNL d   1      38.539  -7.148  -8.277  0.00  0.00    -0.013 C 
ATOM      9  C   UNL d   1      39.916  -7.764  -8.125  0.00  0.00     0.115 C 
ENDROOT
BRANCH   5  10
ATOM     10  N   UNL d   1      39.278  -9.596  -3.712  0.00  0.00    -0.339 N 
ATOM     11  C   UNL d   1      40.028  -9.526  -2.527  0.00  0.00     0.275 C 
ATOM     12  O   UNL d   1      40.556 -10.521  -2.044  0.00  0.00    -0.266 OA
ATOM     13  H   UNL d   1      38.914 -10.512  -3.972  0.00  0.00     0.163 HD
BRANCH  11  14
ATOM     14  C   UNL d   1      40.212  -8.131  -1.895  0.00  0.00     0.180 C 
ATOM     15  N   UNL d   1      41.178  -7.290  -2.149  0.00  0.00    -0.126 NA
BRANCH  15  16
ATOM     16  O   UNL d   1      42.138  -7.719  -3.062  0.00  0.00    -0.261 OA
ATOM     17  C   UNL d   1      43.304  -8.073  -2.307  0.00  0.00     0.240 C 
ENDBRANCH  15  16
BRANCH  14  18
ATOM     18  C   UNL d   1      39.286  -7.649  -0.868  0.00  0.00     0.102 A 
ATOM     19  N   UNL d   1      39.262  -8.197   0.410  0.00  0.00    -0.222 NA
ATOM     20  C   UNL d   1      38.474  -7.494   1.182  0.00  0.00     0.164 A 
ATOM     21  S   UNL d   1      37.652  -6.191   0.430  0.00  0.00    -0.062 SA
ATOM     22  C   UNL d   1      38.437  -6.567  -1.039  0.00  0.00     0.087 A 
BRANCH  20  23
ATOM     23  N   UNL d   1      38.331  -7.744   2.488  0.00  0.00    -0.378 N 
ATOM     24  H   UNL d   1      38.807  -8.538   2.895  0.00  0.00     0.158 HD
ATOM     25  H   UNL d   1      38.189  -6.956   3.109  0.00  0.00     0.158 HD
ENDBRANCH  20  23
ENDBRANCH  14  18
ENDBRANCH  11  14
ENDBRANCH   5  10
BRANCH   7  26
ATOM     26  C   UNL d   1      36.333  -6.299  -7.453  0.00  0.00     0.194 C 
ATOM     27  OXT UNL d   1      35.321  -6.839  -7.880  0.00  0.00    -0.645 OA
BRANCH  26  28
ATOM     28  O   UNL d   1      36.379  -4.967  -7.274  0.00  0.00    -0.772 OA
ATOM     29  H   UNL d   1      36.511  -4.436  -8.089  0.00  0.00     0.167 HD
ENDBRANCH  26  28
ENDBRANCH   7  26
BRANCH   8  30
ATOM     30  C   UNL d   1      38.234  -6.757  -9.713  0.00  0.00     0.216 C 
BRANCH  30  31
ATOM     31  O   UNL d   1      38.276  -5.327  -9.854  0.00  0.00    -0.317 OA
BRANCH  31  32
ATOM     32  C   UNL d   1      38.478  -4.850 -11.110  0.00  0.00     0.255 C 
ATOM     33  O   UNL d   1      39.157  -3.876 -11.401  0.00  0.00    -0.266 OA
ATOM     34  C   UNL d   1      37.751  -5.705 -12.102  0.00  0.00     0.126 C 
ENDBRANCH  31  32
ENDBRANCH  30  31
ENDBRANCH   8  30
TORSDOF 10
ENDMDL
MODEL 9
REMARK VINA RESULT:      -6.8      3.564      6.220
REMARK  10 active torsions:
REMARK  status: ('A' for Active; 'I' for Inactive)
REMARK    1  A    between atoms: O_4  and  C_21 
REMARK    2  A    between atoms: O_4  and  C_26 
REMARK    3  A    between atoms: O_5  and  C_22 
REMARK    4  A    between atoms: O_8  and  N_12 
REMARK    5  A    between atoms: CA_16  and  N_11 
REMARK       I    between atoms: N_11  and  C_23 
REMARK    6  A    between atoms: N_14  and  C_29 
REMARK    7  A    between atoms: CA_18  and  C_22 
REMARK    8  A    between atoms: C_19  and  C_21 
REMARK    9  A    between atoms: C_23  and  C_24 
REMARK   10  A    between atoms: C_24  and  C_25 
ROOT
ATOM      1  S   UNL d   1      38.394 -10.880  -3.733  0.00  0.00    -0.136 SA
ATOM      2  O   UNL d   1      39.914  -8.569  -0.630  0.00  0.00    -0.271 OA
ATOM      3  N   UNL d   1      38.928  -8.470  -2.743  0.00  0.00    -0.293 N 
ATOM      4  C   UNL d   1      39.424  -9.380  -3.769  0.00  0.00     0.187 C 
ATOM      5  CA  UNL d   1      40.766  -9.410  -2.956  0.00  0.00     0.211 C 
ATOM      6  C   UNL d   1      39.876  -8.811  -1.821  0.00  0.00     0.251 C 
ATOM      7  CA  UNL d   1      37.611  -8.107  -2.608  0.00  0.00     0.117 C 
ATOM      8  C   UNL d   1      36.626  -8.775  -3.280  0.00  0.00    -0.013 C 
ATOM      9  C   UNL d   1      36.884  -9.970  -4.177  0.00  0.00     0.115 C 
ENDROOT
BRANCH   5  10
ATOM     10  N   UNL d   1      41.464 -10.728  -2.877  0.00  0.00    -0.339 N 
ATOM     11  C   UNL d   1      42.814 -10.795  -3.253  0.00  0.00     0.275 C 
ATOM     12  O   UNL d   1      43.436 -11.852  -3.221  0.00  0.00    -0.266 OA
ATOM     13  H   UNL d   1      41.115 -11.477  -2.280  0.00  0.00     0.163 HD
BRANCH  11  14
ATOM     14  C   UNL d   1      43.465  -9.495  -3.770  0.00  0.00     0.180 C 
ATOM     15  N   UNL d   1      43.893  -8.502  -3.038  0.00  0.00    -0.126 NA
BRANCH  15  16
ATOM     16  O   UNL d   1      43.714  -8.635  -1.663  0.00  0.00    -0.261 OA
ATOM     17  C   UNL d   1      43.313  -7.351  -1.167  0.00  0.00     0.240 C 
ENDBRANCH  15  16
BRANCH  14  18
ATOM     18  C   UNL d   1      43.609  -9.253  -5.207  0.00  0.00     0.102 A 
ATOM     19  N   UNL d   1      42.584  -8.694  -5.961  0.00  0.00    -0.222 NA
ATOM     20  C   UNL d   1      43.011  -8.429  -7.169  0.00  0.00     0.164 A 
ATOM     21  S   UNL d   1      44.624  -8.896  -7.514  0.00  0.00    -0.062 SA
ATOM     22  C   UNL d   1      44.784  -9.464  -5.912  0.00  0.00     0.087 A 
BRANCH  20  23
ATOM     23  N   UNL d   1      42.258  -7.806  -8.081  0.00  0.00    -0.378 N 
ATOM     24  H   UNL d   1      41.250  -7.879  -8.024  0.00  0.00     0.158 HD
ATOM     25  H   UNL d   1      42.610  -6.943  -8.477  0.00  0.00     0.158 HD
ENDBRANCH  20  23
ENDBRANCH  14  18
ENDBRANCH  11  14
ENDBRANCH   5  10
BRANCH   7  26
ATOM     26  C   UNL d   1      37.288  -6.858  -1.813  0.00  0.00     0.194 C 
ATOM     27  OXT UNL d   1      36.880  -6.872  -0.660  0.00  0.00    -0.645 OA
BRANCH  26  28
ATOM     28  O   UNL d   1      37.338  -5.710  -2.512  0.00  0.00    -0.772 OA
ATOM     29  H   UNL d   1      37.949  -5.710  -3.281  0.00  0.00     0.167 HD
ENDBRANCH  26  28
ENDBRANCH   7  26
BRANCH   8  30
ATOM     30  C   UNL d   1      35.147  -8.452  -3.157  0.00  0.00     0.216 C 
BRANCH  30  31
ATOM     31  O   UNL d   1      34.601  -8.141  -4.450  0.00  0.00    -0.317 OA
BRANCH  31  32
ATOM     32  C   UNL d   1      34.996  -6.965  -5.004  0.00  0.00     0.255 C 
ATOM     33  O   UNL d   1      35.069  -5.893  -4.422  0.00  0.00    -0.266 OA
ATOM     34  C   UNL d   1      35.345  -7.173  -6.446  0.00  0.00     0.126 C 
ENDBRANCH  31  32
ENDBRANCH  30  31
ENDBRANCH   8  30
TORSDOF 10
ENDMDL
