MODEL 1
REMARK VINA RESULT:      -7.3      0.000      0.000
REMARK  10 active torsions:
REMARK  status: ('A' for Active; 'I' for Inactive)
REMARK    1  A    between atoms: O_4  and  C_21 
REMARK    2  A    between atoms: O_4  and  C_26 
REMARK    3  A    between atoms: O_5  and  C_22 
REMARK    4  A    between atoms: O_8  and  N_12 
REMARK    5  A    between atoms: CA_16  and  N_11 
REMARK       I    between atoms: N_11  and  C_23 
REMARK    6  A    between atoms: N_14  and  C_29 
REMARK    7  A    between atoms: CA_18  and  C_22 
REMARK    8  A    between atoms: C_19  and  C_21 
REMARK    9  A    between atoms: C_23  and  C_24 
REMARK   10  A    between atoms: C_24  and  C_25 
ROOT
ATOM      1  S   UNL d   1      38.756  -9.720  -1.918  0.00  0.00    -0.136 SA
ATOM      2  O   UNL d   1      42.074  -7.412  -2.926  0.00  0.00    -0.271 OA
ATOM      3  N   UNL d   1      39.887  -7.335  -2.152  0.00  0.00    -0.293 N 
ATOM      4  C   UNL d   1      38.890  -8.149  -2.833  0.00  0.00     0.187 C 
ATOM      5  CA  UNL d   1      39.855  -8.096  -4.080  0.00  0.00     0.211 C 
ATOM      6  C   UNL d   1      40.905  -7.641  -3.024  0.00  0.00     0.251 C 
ATOM      7  CA  UNL d   1      39.897  -7.064  -0.805  0.00  0.00     0.117 C 
ATOM      8  C   UNL d   1      39.101  -7.763   0.048  0.00  0.00    -0.013 C 
ATOM      9  C   UNL d   1      38.191  -8.895  -0.391  0.00  0.00     0.115 C 
ENDROOT
BRANCH   5  10
ATOM     10  N   UNL d   1      39.934  -9.337  -4.910  0.00  0.00    -0.339 N 
ATOM     11  C   UNL d   1      39.202  -9.394  -6.125  0.00  0.00     0.275 C 
ATOM     12  O   UNL d   1      39.230 -10.396  -6.826  0.00  0.00    -0.266 OA
ATOM     13  H   UNL d   1      40.679 -10.020  -4.779  0.00  0.00     0.163 HD
BRANCH  11  14
ATOM     14  C   UNL d   1      38.317  -8.173  -6.497  0.00  0.00     0.180 C 
ATOM     15  N   UNL d   1      38.638  -7.169  -7.270  0.00  0.00    -0.126 NA
BRANCH  15  16
ATOM     16  O   UNL d   1      39.951  -7.128  -7.738  0.00  0.00    -0.261 OA
ATOM     17  C   UNL d   1      39.953  -7.633  -9.085  0.00  0.00     0.240 C 
ENDBRANCH  15  16
BRANCH  14  18
ATOM     18  C   UNL d   1      36.985  -8.014  -5.902  0.00  0.00     0.102 A 
ATOM     19  N   UNL d   1      36.474  -8.943  -5.014  0.00  0.00    -0.222 NA
ATOM     20  C   UNL d   1      35.367  -8.497  -4.477  0.00  0.00     0.164 A 
ATOM     21  S   UNL d   1      34.820  -6.974  -5.051  0.00  0.00    -0.062 SA
ATOM     22  C   UNL d   1      36.190  -6.885  -6.069  0.00  0.00     0.087 A 
BRANCH  20  23
ATOM     23  N   UNL d   1      34.713  -9.160  -3.526  0.00  0.00    -0.378 N 
ATOM     24  H   UNL d   1      35.031  -9.083  -2.565  0.00  0.00     0.158 HD
ATOM     25  H   UNL d   1      33.713  -9.249  -3.637  0.00  0.00     0.158 HD
ENDBRANCH  20  23
ENDBRANCH  14  18
ENDBRANCH  11  14
ENDBRANCH   5  10
BRANCH   7  26
ATOM     26  C   UNL d   1      40.700  -5.865  -0.344  0.00  0.00     0.194 C 
ATOM     27  OXT UNL d   1      40.208  -4.783  -0.076  0.00  0.00    -0.645 OA
BRANCH  26  28
ATOM     28  O   UNL d   1      42.041  -6.020  -0.387  0.00  0.00    -0.772 OA
ATOM     29  H   UNL d   1      42.416  -6.630   0.283  0.00  0.00     0.167 HD
ENDBRANCH  26  28
ENDBRANCH   7  26
BRANCH   8  30
ATOM     30  C   UNL d   1      39.098  -7.552   1.555  0.00  0.00     0.216 C 
BRANCH  30  31
ATOM     31  O   UNL d   1      37.902  -8.103   2.129  0.00  0.00    -0.317 OA
BRANCH  31  32
ATOM     32  C   UNL d   1      37.835  -8.136   3.486  0.00  0.00     0.255 C 
ATOM     33  O   UNL d   1      38.621  -7.600   4.250  0.00  0.00    -0.266 OA
ATOM     34  C   UNL d   1      36.633  -8.923   3.916  0.00  0.00     0.126 C 
ENDBRANCH  31  32
ENDBRANCH  30  31
ENDBRANCH   8  30
TORSDOF 10
ENDMDL
MODEL 2
REMARK VINA RESULT:      -7.2      3.536      6.506
REMARK  10 active torsions:
REMARK  status: ('A' for Active; 'I' for Inactive)
REMARK    1  A    between atoms: O_4  and  C_21 
REMARK    2  A    between atoms: O_4  and  C_26 
REMARK    3  A    between atoms: O_5  and  C_22 
REMARK    4  A    between atoms: O_8  and  N_12 
REMARK    5  A    between atoms: CA_16  and  N_11 
REMARK       I    between atoms: N_11  and  C_23 
REMARK    6  A    between atoms: N_14  and  C_29 
REMARK    7  A    between atoms: CA_18  and  C_22 
REMARK    8  A    between atoms: C_19  and  C_21 
REMARK    9  A    between atoms: C_23  and  C_24 
REMARK   10  A    between atoms: C_24  and  C_25 
ROOT
ATOM      1  S   UNL d   1      38.293 -10.853  -3.939  0.00  0.00    -0.136 SA
ATOM      2  O   UNL d   1      39.845  -8.766  -0.685  0.00  0.00    -0.271 OA
ATOM      3  N   UNL d   1      38.895  -8.542  -2.791  0.00  0.00    -0.293 N 
ATOM      4  C   UNL d   1      39.389  -9.399  -3.860  0.00  0.00     0.187 C 
ATOM      5  CA  UNL d   1      40.713  -9.512  -3.011  0.00  0.00     0.211 C 
ATOM      6  C   UNL d   1      39.813  -8.972  -1.862  0.00  0.00     0.251 C 
ATOM      7  CA  UNL d   1      37.594  -8.123  -2.654  0.00  0.00     0.117 C 
ATOM      8  C   UNL d   1      36.600  -8.700  -3.381  0.00  0.00    -0.013 C 
ATOM      9  C   UNL d   1      36.825  -9.848  -4.347  0.00  0.00     0.115 C 
ENDROOT
BRANCH   5  10
ATOM     10  N   UNL d   1      41.401 -10.839  -3.030  0.00  0.00    -0.339 N 
ATOM     11  C   UNL d   1      42.804 -10.879  -3.242  0.00  0.00     0.275 C 
ATOM     12  O   UNL d   1      43.401 -11.946  -3.277  0.00  0.00    -0.266 OA
ATOM     13  H   UNL d   1      40.962 -11.673  -2.642  0.00  0.00     0.163 HD
BRANCH  11  14
ATOM     14  C   UNL d   1      43.539  -9.533  -3.493  0.00  0.00     0.180 C 
ATOM     15  N   UNL d   1      43.699  -8.922  -4.637  0.00  0.00    -0.126 NA
BRANCH  15  16
ATOM     16  O   UNL d   1      43.254  -9.589  -5.778  0.00  0.00    -0.261 OA
ATOM     17  C   UNL d   1      42.182  -8.817  -6.347  0.00  0.00     0.240 C 
ENDBRANCH  15  16
BRANCH  14  18
ATOM     18  C   UNL d   1      44.218  -8.842  -2.391  0.00  0.00     0.102 A 
ATOM     19  N   UNL d   1      43.778  -7.615  -1.927  0.00  0.00    -0.222 NA
ATOM     20  C   UNL d   1      44.414  -7.290  -0.831  0.00  0.00     0.164 A 
ATOM     21  S   UNL d   1      45.632  -8.388  -0.321  0.00  0.00    -0.062 SA
ATOM     22  C   UNL d   1      45.254  -9.397  -1.649  0.00  0.00     0.087 A 
BRANCH  20  23
ATOM     23  N   UNL d   1      44.126  -6.195  -0.132  0.00  0.00    -0.378 N 
ATOM     24  H   UNL d   1      43.235  -5.733  -0.288  0.00  0.00     0.158 HD
ATOM     25  H   UNL d   1      44.462  -6.158   0.820  0.00  0.00     0.158 HD
ENDBRANCH  20  23
ENDBRANCH  14  18
ENDBRANCH  11  14
ENDBRANCH   5  10
BRANCH   7  26
ATOM     26  C   UNL d   1      37.344  -6.903  -1.791  0.00  0.00     0.194 C 
ATOM     27  OXT UNL d   1      36.918  -6.956  -0.650  0.00  0.00    -0.645 OA
BRANCH  26  28
ATOM     28  O   UNL d   1      37.479  -5.716  -2.421  0.00  0.00    -0.772 OA
ATOM     29  H   UNL d   1      36.645  -5.220  -2.567  0.00  0.00     0.167 HD
ENDBRANCH  26  28
ENDBRANCH   7  26
BRANCH   8  30
ATOM     30  C   UNL d   1      35.132  -8.323  -3.243  0.00  0.00     0.216 C 
BRANCH  30  31
ATOM     31  O   UNL d   1      34.608  -7.903  -4.514  0.00  0.00    -0.317 OA
BRANCH  31  32
ATOM     32  C   UNL d   1      35.083  -6.731  -5.013  0.00  0.00     0.255 C 
ATOM     33  O   UNL d   1      35.208  -5.690  -4.388  0.00  0.00    -0.266 OA
ATOM     34  C   UNL d   1      35.450  -6.905  -6.456  0.00  0.00     0.126 C 
ENDBRANCH  31  32
ENDBRANCH  30  31
ENDBRANCH   8  30
TORSDOF 10
ENDMDL
MODEL 3
REMARK VINA RESULT:      -7.2      1.938      2.330
REMARK  10 active torsions:
REMARK  status: ('A' for Active; 'I' for Inactive)
REMARK    1  A    between atoms: O_4  and  C_21 
REMARK    2  A    between atoms: O_4  and  C_26 
REMARK    3  A    between atoms: O_5  and  C_22 
REMARK    4  A    between atoms: O_8  and  N_12 
REMARK    5  A    between atoms: CA_16  and  N_11 
REMARK       I    between atoms: N_11  and  C_23 
REMARK    6  A    between atoms: N_14  and  C_29 
REMARK    7  A    between atoms: CA_18  and  C_22 
REMARK    8  A    between atoms: C_19  and  C_21 
REMARK    9  A    between atoms: C_23  and  C_24 
REMARK   10  A    between atoms: C_24  and  C_25 
ROOT
ATOM      1  S   UNL d   1      37.526  -9.148  -2.929  0.00  0.00    -0.136 SA
ATOM      2  O   UNL d   1      41.659  -8.819  -2.520  0.00  0.00    -0.271 OA
ATOM      3  N   UNL d   1      39.665  -7.631  -2.546  0.00  0.00    -0.293 N 
ATOM      4  C   UNL d   1      38.704  -7.928  -3.598  0.00  0.00     0.187 C 
ATOM      5  CA  UNL d   1      39.937  -8.461  -4.425  0.00  0.00     0.211 C 
ATOM      6  C   UNL d   1      40.639  -8.468  -3.036  0.00  0.00     0.251 C 
ATOM      7  CA  UNL d   1      39.341  -7.273  -1.259  0.00  0.00     0.117 C 
ATOM      8  C   UNL d   1      38.069  -7.422  -0.799  0.00  0.00    -0.013 C 
ATOM      9  C   UNL d   1      36.942  -8.014  -1.623  0.00  0.00     0.115 C 
ENDROOT
BRANCH   5  10
ATOM     10  N   UNL d   1      39.690  -9.660  -5.284  0.00  0.00    -0.339 N 
ATOM     11  C   UNL d   1      39.717  -9.507  -6.695  0.00  0.00     0.275 C 
ATOM     12  O   UNL d   1      39.507 -10.460  -7.432  0.00  0.00    -0.266 OA
ATOM     13  H   UNL d   1      39.766 -10.606  -4.914  0.00  0.00     0.163 HD
BRANCH  11  14
ATOM     14  C   UNL d   1      39.955  -8.082  -7.266  0.00  0.00     0.180 C 
ATOM     15  N   UNL d   1      41.082  -7.422  -7.302  0.00  0.00    -0.126 NA
BRANCH  15  16
ATOM     16  O   UNL d   1      42.178  -8.010  -6.671  0.00  0.00    -0.261 OA
ATOM     17  C   UNL d   1      43.108  -8.412  -7.692  0.00  0.00     0.240 C 
ENDBRANCH  15  16
BRANCH  14  18
ATOM     18  C   UNL d   1      38.829  -7.290  -7.777  0.00  0.00     0.102 A 
ATOM     19  N   UNL d   1      37.927  -6.682  -6.923  0.00  0.00    -0.222 NA
ATOM     20  C   UNL d   1      37.134  -5.885  -7.592  0.00  0.00     0.164 A 
ATOM     21  S   UNL d   1      37.361  -5.864  -9.295  0.00  0.00    -0.062 SA
ATOM     22  C   UNL d   1      38.645  -6.979  -9.120  0.00  0.00     0.087 A 
BRANCH  20  23
ATOM     23  N   UNL d   1      36.224  -5.114  -7.000  0.00  0.00    -0.378 N 
ATOM     24  H   UNL d   1      36.532  -4.285  -6.503  0.00  0.00     0.158 HD
ATOM     25  H   UNL d   1      35.330  -5.026  -7.463  0.00  0.00     0.158 HD
ENDBRANCH  20  23
ENDBRANCH  14  18
ENDBRANCH  11  14
ENDBRANCH   5  10
BRANCH   7  26
ATOM     26  C   UNL d   1      40.405  -6.568  -0.444  0.00  0.00     0.194 C 
ATOM     27  OXT UNL d   1      40.451  -5.360  -0.291  0.00  0.00    -0.645 OA
BRANCH  26  28
ATOM     28  O   UNL d   1      41.411  -7.357  -0.008  0.00  0.00    -0.772 OA
ATOM     29  H   UNL d   1      41.795  -7.959  -0.680  0.00  0.00     0.167 HD
ENDBRANCH  26  28
ENDBRANCH   7  26
BRANCH   8  30
ATOM     30  C   UNL d   1      37.650  -7.094   0.627  0.00  0.00     0.216 C 
BRANCH  30  31
ATOM     31  O   UNL d   1      37.749  -8.266   1.452  0.00  0.00    -0.317 OA
BRANCH  31  32
ATOM     32  C   UNL d   1      38.099  -8.070   2.751  0.00  0.00     0.255 C 
ATOM     33  O   UNL d   1      39.170  -7.633   3.141  0.00  0.00    -0.266 OA
ATOM     34  C   UNL d   1      36.961  -8.457   3.648  0.00  0.00     0.126 C 
ENDBRANCH  31  32
ENDBRANCH  30  31
ENDBRANCH   8  30
TORSDOF 10
ENDMDL
MODEL 4
REMARK VINA RESULT:      -7.1      2.722      4.261
REMARK  10 active torsions:
REMARK  status: ('A' for Active; 'I' for Inactive)
REMARK    1  A    between atoms: O_4  and  C_21 
REMARK    2  A    between atoms: O_4  and  C_26 
REMARK    3  A    between atoms: O_5  and  C_22 
REMARK    4  A    between atoms: O_8  and  N_12 
REMARK    5  A    between atoms: CA_16  and  N_11 
REMARK       I    between atoms: N_11  and  C_23 
REMARK    6  A    between atoms: N_14  and  C_29 
REMARK    7  A    between atoms: CA_18  and  C_22 
REMARK    8  A    between atoms: C_19  and  C_21 
REMARK    9  A    between atoms: C_23  and  C_24 
REMARK   10  A    between atoms: C_24  and  C_25 
ROOT
ATOM      1  S   UNL d   1      38.339  -8.159  -3.146  0.00  0.00    -0.136 SA
ATOM      2  O   UNL d   1      42.213  -9.598  -2.624  0.00  0.00    -0.271 OA
ATOM      3  N   UNL d   1      40.922  -7.678  -2.800  0.00  0.00    -0.293 N 
ATOM      4  C   UNL d   1      39.925  -7.615  -3.860  0.00  0.00     0.187 C 
ATOM      5  CA  UNL d   1      40.810  -8.688  -4.606  0.00  0.00     0.211 C 
ATOM      6  C   UNL d   1      41.442  -8.886  -3.197  0.00  0.00     0.251 C 
ATOM      7  CA  UNL d   1      40.783  -7.115  -1.553  0.00  0.00     0.117 C 
ATOM      8  C   UNL d   1      39.570  -6.669  -1.126  0.00  0.00    -0.013 C 
ATOM      9  C   UNL d   1      38.298  -6.785  -1.944  0.00  0.00     0.115 C 
ENDROOT
BRANCH   5  10
ATOM     10  N   UNL d   1      40.072  -9.729  -5.385  0.00  0.00    -0.339 N 
ATOM     11  C   UNL d   1      39.941  -9.566  -6.790  0.00  0.00     0.275 C 
ATOM     12  O   UNL d   1      39.334 -10.388  -7.460  0.00  0.00    -0.266 OA
ATOM     13  H   UNL d   1      39.897 -10.657  -5.003  0.00  0.00     0.163 HD
BRANCH  11  14
ATOM     14  C   UNL d   1      40.533  -8.280  -7.430  0.00  0.00     0.180 C 
ATOM     15  N   UNL d   1      39.928  -7.135  -7.609  0.00  0.00    -0.126 NA
BRANCH  15  16
ATOM     16  O   UNL d   1      38.572  -7.081  -7.287  0.00  0.00    -0.261 OA
ATOM     17  C   UNL d   1      37.851  -6.744  -8.486  0.00  0.00     0.240 C 
ENDBRANCH  15  16
BRANCH  14  18
ATOM     18  C   UNL d   1      41.892  -8.285  -7.985  0.00  0.00     0.102 A 
ATOM     19  N   UNL d   1      42.787  -7.266  -7.715  0.00  0.00    -0.222 NA
ATOM     20  C   UNL d   1      43.979  -7.580  -8.156  0.00  0.00     0.164 A 
ATOM     21  S   UNL d   1      44.096  -9.078  -8.988  0.00  0.00    -0.062 SA
ATOM     22  C   UNL d   1      42.431  -9.346  -8.704  0.00  0.00     0.087 A 
BRANCH  20  23
ATOM     23  N   UNL d   1      45.045  -6.809  -7.954  0.00  0.00    -0.378 N 
ATOM     24  H   UNL d   1      44.912  -5.811  -7.828  0.00  0.00     0.158 HD
ATOM     25  H   UNL d   1      45.802  -7.208  -7.418  0.00  0.00     0.158 HD
ENDBRANCH  20  23
ENDBRANCH  14  18
ENDBRANCH  11  14
ENDBRANCH   5  10
BRANCH   7  26
ATOM     26  C   UNL d   1      42.047  -6.872  -0.756  0.00  0.00     0.194 C 
ATOM     27  OXT UNL d   1      42.535  -7.690   0.005  0.00  0.00    -0.645 OA
BRANCH  26  28
ATOM     28  O   UNL d   1      42.535  -5.615  -0.820  0.00  0.00    -0.772 OA
ATOM     29  H   UNL d   1      42.983  -5.296  -0.008  0.00  0.00     0.167 HD
ENDBRANCH  26  28
ENDBRANCH   7  26
BRANCH   8  30
ATOM     30  C   UNL d   1      39.333  -6.084   0.258  0.00  0.00     0.216 C 
BRANCH  30  31
ATOM     31  O   UNL d   1      39.140  -7.139   1.214  0.00  0.00    -0.317 OA
BRANCH  31  32
ATOM     32  C   UNL d   1      37.886  -7.286   1.716  0.00  0.00     0.255 C 
ATOM     33  O   UNL d   1      36.954  -6.519   1.539  0.00  0.00    -0.266 OA
ATOM     34  C   UNL d   1      37.805  -8.552   2.517  0.00  0.00     0.126 C 
ENDBRANCH  31  32
ENDBRANCH  30  31
ENDBRANCH   8  30
TORSDOF 10
ENDMDL
MODEL 5
REMARK VINA RESULT:      -7.1      3.711      8.697
REMARK  10 active torsions:
REMARK  status: ('A' for Active; 'I' for Inactive)
REMARK    1  A    between atoms: O_4  and  C_21 
REMARK    2  A    between atoms: O_4  and  C_26 
REMARK    3  A    between atoms: O_5  and  C_22 
REMARK    4  A    between atoms: O_8  and  N_12 
REMARK    5  A    between atoms: CA_16  and  N_11 
REMARK       I    between atoms: N_11  and  C_23 
REMARK    6  A    between atoms: N_14  and  C_29 
REMARK    7  A    between atoms: CA_18  and  C_22 
REMARK    8  A    between atoms: C_19  and  C_21 
REMARK    9  A    between atoms: C_23  and  C_24 
REMARK   10  A    between atoms: C_24  and  C_25 
ROOT
ATOM      1  S   UNL d   1      39.472  -8.859  -7.690  0.00  0.00    -0.136 SA
ATOM      2  O   UNL d   1      35.543  -7.818  -6.777  0.00  0.00    -0.271 OA
ATOM      3  N   UNL d   1      37.650  -6.980  -7.272  0.00  0.00    -0.293 N 
ATOM      4  C   UNL d   1      38.798  -7.567  -6.595  0.00  0.00     0.187 C 
ATOM      5  CA  UNL d   1      37.777  -8.003  -5.474  0.00  0.00     0.211 C 
ATOM      6  C   UNL d   1      36.716  -7.708  -6.574  0.00  0.00     0.251 C 
ATOM      7  CA  UNL d   1      37.653  -6.508  -8.563  0.00  0.00     0.117 C 
ATOM      8  C   UNL d   1      38.684  -6.795  -9.403  0.00  0.00    -0.013 C 
ATOM      9  C   UNL d   1      39.863  -7.667  -9.017  0.00  0.00     0.115 C 
ENDROOT
BRANCH   5  10
ATOM     10  N   UNL d   1      38.024  -9.330  -4.833  0.00  0.00    -0.339 N 
ATOM     11  C   UNL d   1      37.468  -9.584  -3.551  0.00  0.00     0.275 C 
ATOM     12  O   UNL d   1      37.658 -10.653  -2.988  0.00  0.00    -0.266 OA
ATOM     13  H   UNL d   1      38.338 -10.134  -5.374  0.00  0.00     0.163 HD
BRANCH  11  14
ATOM     14  C   UNL d   1      36.674  -8.439  -2.864  0.00  0.00     0.180 C 
ATOM     15  N   UNL d   1      35.419  -8.126  -3.050  0.00  0.00    -0.126 NA
BRANCH  15  16
ATOM     16  O   UNL d   1      34.733  -8.825  -4.044  0.00  0.00    -0.261 OA
ATOM     17  C   UNL d   1      33.368  -8.374  -4.035  0.00  0.00     0.240 C 
ENDBRANCH  15  16
BRANCH  14  18
ATOM     18  C   UNL d   1      37.349  -7.514  -1.947  0.00  0.00     0.102 A 
ATOM     19  N   UNL d   1      36.721  -7.034  -0.812  0.00  0.00    -0.222 NA
ATOM     20  C   UNL d   1      37.574  -6.387  -0.059  0.00  0.00     0.164 A 
ATOM     21  S   UNL d   1      39.164  -6.241  -0.691  0.00  0.00    -0.062 SA
ATOM     22  C   UNL d   1      38.686  -7.148  -2.059  0.00  0.00     0.087 A 
BRANCH  20  23
ATOM     23  N   UNL d   1      37.248  -5.892   1.133  0.00  0.00    -0.378 N 
ATOM     24  H   UNL d   1      36.712  -5.032   1.177  0.00  0.00     0.158 HD
ATOM     25  H   UNL d   1      37.045  -6.559   1.863  0.00  0.00     0.158 HD
ENDBRANCH  20  23
ENDBRANCH  14  18
ENDBRANCH  11  14
ENDBRANCH   5  10
BRANCH   7  26
ATOM     26  C   UNL d   1      36.557  -5.538  -8.950  0.00  0.00     0.194 C 
ATOM     27  OXT UNL d   1      36.212  -4.594  -8.260  0.00  0.00    -0.645 OA
BRANCH  26  28
ATOM     28  O   UNL d   1      35.862  -5.868 -10.061  0.00  0.00    -0.772 OA
ATOM     29  H   UNL d   1      35.018  -6.341  -9.903  0.00  0.00     0.167 HD
ENDBRANCH  26  28
ENDBRANCH   7  26
BRANCH   8  30
ATOM     30  C   UNL d   1      38.729  -6.349 -10.857  0.00  0.00     0.216 C 
BRANCH  30  31
ATOM     31  O   UNL d   1      38.844  -4.919 -10.932  0.00  0.00    -0.317 OA
BRANCH  31  32
ATOM     32  C   UNL d   1      39.323  -4.406 -12.096  0.00  0.00     0.255 C 
ATOM     33  O   UNL d   1      40.244  -3.613 -12.198  0.00  0.00    -0.266 OA
ATOM     34  C   UNL d   1      38.557  -4.973 -13.254  0.00  0.00     0.126 C 
ENDBRANCH  31  32
ENDBRANCH  30  31
ENDBRANCH   8  30
TORSDOF 10
ENDMDL
MODEL 6
REMARK VINA RESULT:      -7.0      3.894      7.788
REMARK  10 active torsions:
REMARK  status: ('A' for Active; 'I' for Inactive)
REMARK    1  A    between atoms: O_4  and  C_21 
REMARK    2  A    between atoms: O_4  and  C_26 
REMARK    3  A    between atoms: O_5  and  C_22 
REMARK    4  A    between atoms: O_8  and  N_12 
REMARK    5  A    between atoms: CA_16  and  N_11 
REMARK       I    between atoms: N_11  and  C_23 
REMARK    6  A    between atoms: N_14  and  C_29 
REMARK    7  A    between atoms: CA_18  and  C_22 
REMARK    8  A    between atoms: C_19  and  C_21 
REMARK    9  A    between atoms: C_23  and  C_24 
REMARK   10  A    between atoms: C_24  and  C_25 
ROOT
ATOM      1  S   UNL d   1      39.171  -6.887  -0.605  0.00  0.00    -0.136 SA
ATOM      2  O   UNL d   1      41.369  -7.309  -4.119  0.00  0.00    -0.271 OA
ATOM      3  N   UNL d   1      40.084  -8.438  -2.550  0.00  0.00    -0.293 N 
ATOM      4  C   UNL d   1      40.340  -8.179  -1.139  0.00  0.00     0.187 C 
ATOM      5  CA  UNL d   1      41.783  -7.733  -1.594  0.00  0.00     0.211 C 
ATOM      6  C   UNL d   1      41.124  -7.661  -3.002  0.00  0.00     0.251 C 
ATOM      7  CA  UNL d   1      38.850  -8.707  -3.091  0.00  0.00     0.117 C 
ATOM      8  C   UNL d   1      37.716  -8.494  -2.370  0.00  0.00    -0.013 C 
ATOM      9  C   UNL d   1      37.710  -7.921  -0.965  0.00  0.00     0.115 C 
ENDROOT
BRANCH   5  10
ATOM     10  N   UNL d   1      42.385  -6.583  -0.853  0.00  0.00    -0.339 N 
ATOM     11  C   UNL d   1      43.754  -6.651  -0.481  0.00  0.00     0.275 C 
ATOM     12  O   UNL d   1      44.280  -5.737   0.137  0.00  0.00    -0.266 OA
ATOM     13  H   UNL d   1      41.941  -5.667  -0.839  0.00  0.00     0.163 HD
BRANCH  11  14
ATOM     14  C   UNL d   1      44.536  -7.949  -0.826  0.00  0.00     0.180 C 
ATOM     15  N   UNL d   1      44.796  -8.951  -0.028  0.00  0.00    -0.126 NA
BRANCH  15  16
ATOM     16  O   UNL d   1      44.423  -8.807   1.308  0.00  0.00    -0.261 OA
ATOM     17  C   UNL d   1      45.557  -9.160   2.120  0.00  0.00     0.240 C 
ENDBRANCH  15  16
BRANCH  14  18
ATOM     18  C   UNL d   1      45.146  -8.118  -2.150  0.00  0.00     0.102 A 
ATOM     19  N   UNL d   1      46.099  -7.236  -2.624  0.00  0.00    -0.222 NA
ATOM     20  C   UNL d   1      46.629  -7.692  -3.731  0.00  0.00     0.164 A 
ATOM     21  S   UNL d   1      45.972  -9.165  -4.321  0.00  0.00    -0.062 SA
ATOM     22  C   UNL d   1      44.924  -9.218  -2.971  0.00  0.00     0.087 A 
BRANCH  20  23
ATOM     23  N   UNL d   1      47.631  -7.076  -4.354  0.00  0.00    -0.378 N 
ATOM     24  H   UNL d   1      48.517  -6.969  -3.871  0.00  0.00     0.158 HD
ATOM     25  H   UNL d   1      47.705  -7.218  -5.351  0.00  0.00     0.158 HD
ENDBRANCH  20  23
ENDBRANCH  14  18
ENDBRANCH  11  14
ENDBRANCH   5  10
BRANCH   7  26
ATOM     26  C   UNL d   1      38.817  -9.390  -4.442  0.00  0.00     0.194 C 
ATOM     27  OXT UNL d   1      38.869 -10.599  -4.591  0.00  0.00    -0.645 OA
BRANCH  26  28
ATOM     28  O   UNL d   1      38.879  -8.562  -5.507  0.00  0.00    -0.772 OA
ATOM     29  H   UNL d   1      39.503  -7.810  -5.419  0.00  0.00     0.167 HD
ENDBRANCH  26  28
ENDBRANCH   7  26
BRANCH   8  30
ATOM     30  C   UNL d   1      36.316  -8.720  -2.922  0.00  0.00     0.216 C 
BRANCH  30  31
ATOM     31  O   UNL d   1      35.740  -7.471  -3.335  0.00  0.00    -0.317 OA
BRANCH  31  32
ATOM     32  C   UNL d   1      35.598  -7.277  -4.673  0.00  0.00     0.255 C 
ATOM     33  O   UNL d   1      36.470  -6.889  -5.433  0.00  0.00    -0.266 OA
ATOM     34  C   UNL d   1      34.201  -7.628  -5.092  0.00  0.00     0.126 C 
ENDBRANCH  31  32
ENDBRANCH  30  31
ENDBRANCH   8  30
TORSDOF 10
ENDMDL
MODEL 7
REMARK VINA RESULT:      -7.0      2.806      8.342
REMARK  10 active torsions:
REMARK  status: ('A' for Active; 'I' for Inactive)
REMARK    1  A    between atoms: O_4  and  C_21 
REMARK    2  A    between atoms: O_4  and  C_26 
REMARK    3  A    between atoms: O_5  and  C_22 
REMARK    4  A    between atoms: O_8  and  N_12 
REMARK    5  A    between atoms: CA_16  and  N_11 
REMARK       I    between atoms: N_11  and  C_23 
REMARK    6  A    between atoms: N_14  and  C_29 
REMARK    7  A    between atoms: CA_18  and  C_22 
REMARK    8  A    between atoms: C_19  and  C_21 
REMARK    9  A    between atoms: C_23  and  C_24 
REMARK   10  A    between atoms: C_24  and  C_25 
ROOT
ATOM      1  S   UNL d   1      39.166  -9.477  -5.193  0.00  0.00    -0.136 SA
ATOM      2  O   UNL d   1      35.477  -7.743  -4.333  0.00  0.00    -0.271 OA
ATOM      3  N   UNL d   1      37.578  -7.356  -5.242  0.00  0.00    -0.293 N 
ATOM      4  C   UNL d   1      38.741  -7.841  -4.511  0.00  0.00     0.187 C 
ATOM      5  CA  UNL d   1      37.824  -7.786  -3.229  0.00  0.00     0.211 C 
ATOM      6  C   UNL d   1      36.672  -7.718  -4.274  0.00  0.00     0.251 C 
ATOM      7  CA  UNL d   1      37.472  -7.306  -6.611  0.00  0.00     0.117 C 
ATOM      8  C   UNL d   1      38.368  -7.959  -7.399  0.00  0.00    -0.013 C 
ATOM      9  C   UNL d   1      39.503  -8.805  -6.856  0.00  0.00     0.115 C 
ENDROOT
BRANCH   5  10
ATOM     10  N   UNL d   1      38.026  -8.873  -2.223  0.00  0.00    -0.339 N 
ATOM     11  C   UNL d   1      38.956  -8.665  -1.170  0.00  0.00     0.275 C 
ATOM     12  O   UNL d   1      39.159  -9.535  -0.335  0.00  0.00    -0.266 OA
ATOM     13  H   UNL d   1      37.350  -9.627  -2.110  0.00  0.00     0.163 HD
BRANCH  11  14
ATOM     14  C   UNL d   1      39.750  -7.330  -1.156  0.00  0.00     0.180 C 
ATOM     15  N   UNL d   1      39.268  -6.125  -0.998  0.00  0.00    -0.126 NA
BRANCH  15  16
ATOM     16  O   UNL d   1      37.880  -6.004  -0.934  0.00  0.00    -0.261 OA
ATOM     17  C   UNL d   1      37.503  -6.006   0.454  0.00  0.00     0.240 C 
ENDBRANCH  15  16
BRANCH  14  18
ATOM     18  C   UNL d   1      41.195  -7.323  -1.412  0.00  0.00     0.102 A 
ATOM     19  N   UNL d   1      42.066  -6.600  -0.618  0.00  0.00    -0.222 NA
ATOM     20  C   UNL d   1      43.306  -6.897  -0.917  0.00  0.00     0.164 A 
ATOM     21  S   UNL d   1      43.516  -8.000  -2.216  0.00  0.00    -0.062 SA
ATOM     22  C   UNL d   1      41.817  -8.121  -2.366  0.00  0.00     0.087 A 
BRANCH  20  23
ATOM     23  N   UNL d   1      44.344  -6.402  -0.247  0.00  0.00    -0.378 N 
ATOM     24  H   UNL d   1      45.203  -6.205  -0.749  0.00  0.00     0.158 HD
ATOM     25  H   UNL d   1      44.137  -5.766   0.510  0.00  0.00     0.158 HD
ENDBRANCH  20  23
ENDBRANCH  14  18
ENDBRANCH  11  14
ENDBRANCH   5  10
BRANCH   7  26
ATOM     26  C   UNL d   1      36.427  -6.377  -7.193  0.00  0.00     0.194 C 
ATOM     27  OXT UNL d   1      35.382  -6.759  -7.690  0.00  0.00    -0.645 OA
BRANCH  26  28
ATOM     28  O   UNL d   1      36.790  -5.078  -7.270  0.00  0.00    -0.772 OA
ATOM     29  H   UNL d   1      36.883  -4.720  -8.178  0.00  0.00     0.167 HD
ENDBRANCH  26  28
ENDBRANCH   7  26
BRANCH   8  30
ATOM     30  C   UNL d   1      38.282  -7.988  -8.918  0.00  0.00     0.216 C 
BRANCH  30  31
ATOM     31  O   UNL d   1      39.048  -6.910  -9.478  0.00  0.00    -0.317 OA
BRANCH  31  32
ATOM     32  C   UNL d   1      38.392  -6.068 -10.321  0.00  0.00     0.255 C 
ATOM     33  O   UNL d   1      37.994  -4.950 -10.041  0.00  0.00    -0.266 OA
ATOM     34  C   UNL d   1      38.241  -6.714 -11.666  0.00  0.00     0.126 C 
ENDBRANCH  31  32
ENDBRANCH  30  31
ENDBRANCH   8  30
TORSDOF 10
ENDMDL
MODEL 8
REMARK VINA RESULT:      -6.8      3.634      5.521
REMARK  10 active torsions:
REMARK  status: ('A' for Active; 'I' for Inactive)
REMARK    1  A    between atoms: O_4  and  C_21 
REMARK    2  A    between atoms: O_4  and  C_26 
REMARK    3  A    between atoms: O_5  and  C_22 
REMARK    4  A    between atoms: O_8  and  N_12 
REMARK    5  A    between atoms: CA_16  and  N_11 
REMARK       I    between atoms: N_11  and  C_23 
REMARK    6  A    between atoms: N_14  and  C_29 
REMARK    7  A    between atoms: CA_18  and  C_22 
REMARK    8  A    between atoms: C_19  and  C_21 
REMARK    9  A    between atoms: C_23  and  C_24 
REMARK   10  A    between atoms: C_24  and  C_25 
ROOT
ATOM      1  S   UNL d   1      39.610  -6.973  -5.418  0.00  0.00    -0.136 SA
ATOM      2  O   UNL d   1      35.970  -6.208  -7.294  0.00  0.00    -0.271 OA
ATOM      3  N   UNL d   1      37.119  -7.707  -5.946  0.00  0.00    -0.293 N 
ATOM      4  C   UNL d   1      38.476  -8.073  -6.328  0.00  0.00     0.187 C 
ATOM      5  CA  UNL d   1      38.059  -7.661  -7.793  0.00  0.00     0.211 C 
ATOM      6  C   UNL d   1      36.881  -6.948  -7.066  0.00  0.00     0.251 C 
ATOM      7  CA  UNL d   1      36.670  -7.582  -4.653  0.00  0.00     0.117 C 
ATOM      8  C   UNL d   1      37.550  -7.541  -3.616  0.00  0.00    -0.013 C 
ATOM      9  C   UNL d   1      39.056  -7.587  -3.790  0.00  0.00     0.115 C 
ENDROOT
BRANCH   5  10
ATOM     10  N   UNL d   1      39.109  -6.991  -8.617  0.00  0.00    -0.339 N 
ATOM     11  C   UNL d   1      39.234  -7.346  -9.986  0.00  0.00     0.275 C 
ATOM     12  O   UNL d   1      40.089  -6.830 -10.691  0.00  0.00    -0.266 OA
ATOM     13  H   UNL d   1      39.550  -6.123  -8.317  0.00  0.00     0.163 HD
BRANCH  11  14
ATOM     14  C   UNL d   1      38.295  -8.456 -10.536  0.00  0.00     0.180 C 
ATOM     15  N   UNL d   1      38.509  -9.745 -10.534  0.00  0.00    -0.126 NA
BRANCH  15  16
ATOM     16  O   UNL d   1      39.756 -10.177 -10.082  0.00  0.00    -0.261 OA
ATOM     17  C   UNL d   1      39.544 -10.952  -8.889  0.00  0.00     0.240 C 
ENDBRANCH  15  16
BRANCH  14  18
ATOM     18  C   UNL d   1      37.043  -8.099 -11.214  0.00  0.00     0.102 A 
ATOM     19  N   UNL d   1      35.953  -8.950 -11.212  0.00  0.00    -0.222 NA
ATOM     20  C   UNL d   1      34.903  -8.345 -11.708  0.00  0.00     0.164 A 
ATOM     21  S   UNL d   1      35.165  -6.747 -12.280  0.00  0.00    -0.062 SA
ATOM     22  C   UNL d   1      36.800  -6.858 -11.791  0.00  0.00     0.087 A 
BRANCH  20  23
ATOM     23  N   UNL d   1      33.699  -8.912 -11.746  0.00  0.00    -0.378 N 
ATOM     24  H   UNL d   1      33.424  -9.423 -12.579  0.00  0.00     0.158 HD
ATOM     25  H   UNL d   1      33.344  -9.287 -10.879  0.00  0.00     0.158 HD
ENDBRANCH  20  23
ENDBRANCH  14  18
ENDBRANCH  11  14
ENDBRANCH   5  10
BRANCH   7  26
ATOM     26  C   UNL d   1      35.175  -7.653  -4.426  0.00  0.00     0.194 C 
ATOM     27  OXT UNL d   1      34.563  -8.695  -4.263  0.00  0.00    -0.645 OA
BRANCH  26  28
ATOM     28  O   UNL d   1      34.515  -6.482  -4.564  0.00  0.00    -0.772 OA
ATOM     29  H   UNL d   1      34.731  -5.798  -3.896  0.00  0.00     0.167 HD
ENDBRANCH  26  28
ENDBRANCH   7  26
BRANCH   8  30
ATOM     30  C   UNL d   1      37.129  -7.352  -2.166  0.00  0.00     0.216 C 
BRANCH  30  31
ATOM     31  O   UNL d   1      37.647  -6.113  -1.657  0.00  0.00    -0.317 OA
BRANCH  31  32
ATOM     32  C   UNL d   1      37.861  -6.045  -0.317  0.00  0.00     0.255 C 
ATOM     33  O   UNL d   1      37.005  -6.149   0.547  0.00  0.00    -0.266 OA
ATOM     34  C   UNL d   1      39.321  -5.837  -0.045  0.00  0.00     0.126 C 
ENDBRANCH  31  32
ENDBRANCH  30  31
ENDBRANCH   8  30
TORSDOF 10
ENDMDL
MODEL 9
REMARK VINA RESULT:      -6.7      3.117      7.980
REMARK  10 active torsions:
REMARK  status: ('A' for Active; 'I' for Inactive)
REMARK    1  A    between atoms: O_4  and  C_21 
REMARK    2  A    between atoms: O_4  and  C_26 
REMARK    3  A    between atoms: O_5  and  C_22 
REMARK    4  A    between atoms: O_8  and  N_12 
REMARK    5  A    between atoms: CA_16  and  N_11 
REMARK       I    between atoms: N_11  and  C_23 
REMARK    6  A    between atoms: N_14  and  C_29 
REMARK    7  A    between atoms: CA_18  and  C_22 
REMARK    8  A    between atoms: C_19  and  C_21 
REMARK    9  A    between atoms: C_23  and  C_24 
REMARK   10  A    between atoms: C_24  and  C_25 
ROOT
ATOM      1  S   UNL d   1      39.891  -9.049  -7.154  0.00  0.00    -0.136 SA
ATOM      2  O   UNL d   1      36.394  -8.502  -4.955  0.00  0.00    -0.271 OA
ATOM      3  N   UNL d   1      38.075  -7.413  -6.129  0.00  0.00    -0.293 N 
ATOM      4  C   UNL d   1      39.454  -7.816  -5.885  0.00  0.00     0.187 C 
ATOM      5  CA  UNL d   1      38.940  -8.338  -4.487  0.00  0.00     0.211 C 
ATOM      6  C   UNL d   1      37.541  -8.230  -5.161  0.00  0.00     0.251 C 
ATOM      7  CA  UNL d   1      37.578  -6.996  -7.340  0.00  0.00     0.117 C 
ATOM      8  C   UNL d   1      38.295  -7.177  -8.482  0.00  0.00    -0.013 C 
ATOM      9  C   UNL d   1      39.644  -7.869  -8.525  0.00  0.00     0.115 C 
ENDROOT
BRANCH   5  10
ATOM     10  N   UNL d   1      39.568  -9.595  -3.978  0.00  0.00    -0.339 N 
ATOM     11  C   UNL d   1      40.313  -9.546  -2.770  0.00  0.00     0.275 C 
ATOM     12  O   UNL d   1      40.853 -10.549  -2.327  0.00  0.00    -0.266 OA
ATOM     13  H   UNL d   1      39.271 -10.512  -4.308  0.00  0.00     0.163 HD
BRANCH  11  14
ATOM     14  C   UNL d   1      40.472  -8.167  -2.071  0.00  0.00     0.180 C 
ATOM     15  N   UNL d   1      41.450  -7.313  -2.221  0.00  0.00    -0.126 NA
BRANCH  15  16
ATOM     16  O   UNL d   1      42.524  -7.716  -3.016  0.00  0.00    -0.261 OA
ATOM     17  C   UNL d   1      43.612  -8.060  -2.140  0.00  0.00     0.240 C 
ENDBRANCH  15  16
BRANCH  14  18
ATOM     18  C   UNL d   1      39.499  -7.730  -1.063  0.00  0.00     0.102 A 
ATOM     19  N   UNL d   1      39.535  -8.211   0.233  0.00  0.00    -0.222 NA
ATOM     20  C   UNL d   1      38.701  -7.542   0.989  0.00  0.00     0.164 A 
ATOM     21  S   UNL d   1      37.764  -6.347   0.188  0.00  0.00    -0.062 SA
ATOM     22  C   UNL d   1      38.562  -6.725  -1.276  0.00  0.00     0.087 A 
BRANCH  20  23
ATOM     23  N   UNL d   1      38.598  -7.749   2.300  0.00  0.00    -0.378 N 
ATOM     24  H   UNL d   1      39.228  -8.409   2.744  0.00  0.00     0.158 HD
ATOM     25  H   UNL d   1      38.344  -6.953   2.868  0.00  0.00     0.158 HD
ENDBRANCH  20  23
ENDBRANCH  14  18
ENDBRANCH  11  14
ENDBRANCH   5  10
BRANCH   7  26
ATOM     26  C   UNL d   1      36.293  -6.195  -7.326  0.00  0.00     0.194 C 
ATOM     27  OXT UNL d   1      36.253  -4.980  -7.241  0.00  0.00    -0.645 OA
BRANCH  26  28
ATOM     28  O   UNL d   1      35.160  -6.928  -7.260  0.00  0.00    -0.772 OA
ATOM     29  H   UNL d   1      35.088  -7.651  -7.919  0.00  0.00     0.167 HD
ENDBRANCH  26  28
ENDBRANCH   7  26
BRANCH   8  30
ATOM     30  C   UNL d   1      37.786  -6.787  -9.862  0.00  0.00     0.216 C 
BRANCH  30  31
ATOM     31  O   UNL d   1      36.949  -7.828 -10.392  0.00  0.00    -0.317 OA
BRANCH  31  32
ATOM     32  C   UNL d   1      35.649  -7.506 -10.623  0.00  0.00     0.255 C 
ATOM     33  O   UNL d   1      34.684  -7.997 -10.060  0.00  0.00    -0.266 OA
ATOM     34  C   UNL d   1      35.569  -6.437 -11.672  0.00  0.00     0.126 C 
ENDBRANCH  31  32
ENDBRANCH  30  31
ENDBRANCH   8  30
TORSDOF 10
ENDMDL
