MODEL 1
REMARK VINA RESULT:      -7.6      0.000      0.000
REMARK  10 active torsions:
REMARK  status: ('A' for Active; 'I' for Inactive)
REMARK    1  A    between atoms: O_4  and  C_21 
REMARK    2  A    between atoms: O_4  and  C_26 
REMARK    3  A    between atoms: O_5  and  C_22 
REMARK    4  A    between atoms: O_8  and  N_12 
REMARK    5  A    between atoms: CA_16  and  N_11 
REMARK       I    between atoms: N_11  and  C_23 
REMARK    6  A    between atoms: N_14  and  C_29 
REMARK    7  A    between atoms: CA_18  and  C_22 
REMARK    8  A    between atoms: C_19  and  C_21 
REMARK    9  A    between atoms: C_23  and  C_24 
REMARK   10  A    between atoms: C_24  and  C_25 
ROOT
ATOM      1  S   UNL d   1      38.725  -9.689  -1.850  0.00  0.00    -0.136 SA
ATOM      2  O   UNL d   1      41.918  -7.248  -2.914  0.00  0.00    -0.271 OA
ATOM      3  N   UNL d   1      39.741  -7.241  -2.074  0.00  0.00    -0.293 N 
ATOM      4  C   UNL d   1      38.756  -8.095  -2.728  0.00  0.00     0.187 C 
ATOM      5  CA  UNL d   1      39.661  -7.995  -4.006  0.00  0.00     0.211 C 
ATOM      6  C   UNL d   1      40.728  -7.490  -2.984  0.00  0.00     0.251 C 
ATOM      7  CA  UNL d   1      39.782  -7.010  -0.721  0.00  0.00     0.117 C 
ATOM      8  C   UNL d   1      39.045  -7.770   0.143  0.00  0.00    -0.013 C 
ATOM      9  C   UNL d   1      38.173  -8.931  -0.294  0.00  0.00     0.115 C 
ENDROOT
BRANCH   5  10
ATOM     10  N   UNL d   1      39.794  -9.238  -4.823  0.00  0.00    -0.339 N 
ATOM     11  C   UNL d   1      39.066  -9.335  -6.019  0.00  0.00     0.275 C 
ATOM     12  O   UNL d   1      39.125 -10.336  -6.725  0.00  0.00    -0.266 OA
ATOM     13  H   UNL d   1      40.601  -9.852  -4.725  0.00  0.00     0.163 HD
BRANCH  11  14
ATOM     14  C   UNL d   1      38.138  -8.155  -6.374  0.00  0.00     0.180 C 
ATOM     15  N   UNL d   1      38.445  -7.130  -7.124  0.00  0.00    -0.126 NA
BRANCH  15  16
ATOM     16  O   UNL d   1      39.746  -7.104  -7.620  0.00  0.00    -0.261 OA
ATOM     17  C   UNL d   1      39.670  -7.443  -9.010  0.00  0.00     0.240 C 
ENDBRANCH  15  16
BRANCH  14  18
ATOM     18  C   UNL d   1      36.785  -8.076  -5.821  0.00  0.00     0.102 A 
ATOM     19  N   UNL d   1      36.325  -8.992  -4.881  0.00  0.00    -0.222 NA
ATOM     20  C   UNL d   1      35.159  -8.616  -4.424  0.00  0.00     0.164 A 
ATOM     21  S   UNL d   1      34.495  -7.202  -5.132  0.00  0.00    -0.062 SA
ATOM     22  C   UNL d   1      35.893  -7.053  -6.102  0.00  0.00     0.087 A 
BRANCH  20  23
ATOM     23  N   UNL d   1      34.522  -9.266  -3.445  0.00  0.00    -0.378 N 
ATOM     24  H   UNL d   1      34.947  -9.318  -2.528  0.00  0.00     0.158 HD
ATOM     25  H   UNL d   1      33.509  -9.266  -3.456  0.00  0.00     0.158 HD
ENDBRANCH  20  23
ENDBRANCH  14  18
ENDBRANCH  11  14
ENDBRANCH   5  10
BRANCH   7  26
ATOM     26  C   UNL d   1      40.547  -5.801  -0.222  0.00  0.00     0.194 C 
ATOM     27  OXT UNL d   1      40.017  -4.747   0.100  0.00  0.00    -0.645 OA
BRANCH  26  28
ATOM     28  O   UNL d   1      41.885  -5.905  -0.295  0.00  0.00    -0.772 OA
ATOM     29  H   UNL d   1      42.309  -5.403  -1.025  0.00  0.00     0.167 HD
ENDBRANCH  26  28
ENDBRANCH   7  26
BRANCH   8  30
ATOM     30  C   UNL d   1      39.063  -7.594   1.652  0.00  0.00     0.216 C 
BRANCH  30  31
ATOM     31  O   UNL d   1      38.121  -8.492   2.263  0.00  0.00    -0.317 OA
BRANCH  31  32
ATOM     32  C   UNL d   1      37.106  -7.918   2.960  0.00  0.00     0.255 C 
ATOM     33  O   UNL d   1      36.620  -6.819   2.735  0.00  0.00    -0.266 OA
ATOM     34  C   UNL d   1      36.652  -8.840   4.050  0.00  0.00     0.126 C 
ENDBRANCH  31  32
ENDBRANCH  30  31
ENDBRANCH   8  30
TORSDOF 10
ENDMDL
MODEL 2
REMARK VINA RESULT:      -7.3      2.042      2.549
REMARK  10 active torsions:
REMARK  status: ('A' for Active; 'I' for Inactive)
REMARK    1  A    between atoms: O_4  and  C_21 
REMARK    2  A    between atoms: O_4  and  C_26 
REMARK    3  A    between atoms: O_5  and  C_22 
REMARK    4  A    between atoms: O_8  and  N_12 
REMARK    5  A    between atoms: CA_16  and  N_11 
REMARK       I    between atoms: N_11  and  C_23 
REMARK    6  A    between atoms: N_14  and  C_29 
REMARK    7  A    between atoms: CA_18  and  C_22 
REMARK    8  A    between atoms: C_19  and  C_21 
REMARK    9  A    between atoms: C_23  and  C_24 
REMARK   10  A    between atoms: C_24  and  C_25 
ROOT
ATOM      1  S   UNL d   1      37.563  -8.535  -2.876  0.00  0.00    -0.136 SA
ATOM      2  O   UNL d   1      41.676  -8.585  -2.276  0.00  0.00    -0.271 OA
ATOM      3  N   UNL d   1      39.825  -7.185  -2.511  0.00  0.00    -0.293 N 
ATOM      4  C   UNL d   1      38.875  -7.485  -3.575  0.00  0.00     0.187 C 
ATOM      5  CA  UNL d   1      40.064  -8.207  -4.301  0.00  0.00     0.211 C 
ATOM      6  C   UNL d   1      40.722  -8.143  -2.886  0.00  0.00     0.251 C 
ATOM      7  CA  UNL d   1      39.470  -6.699  -1.277  0.00  0.00     0.117 C 
ATOM      8  C   UNL d   1      38.165  -6.696  -0.872  0.00  0.00    -0.013 C 
ATOM      9  C   UNL d   1      37.027  -7.253  -1.705  0.00  0.00     0.115 C 
ENDROOT
BRANCH   5  10
ATOM     10  N   UNL d   1      39.730  -9.471  -5.022  0.00  0.00    -0.339 N 
ATOM     11  C   UNL d   1      39.712  -9.457  -6.426  0.00  0.00     0.275 C 
ATOM     12  O   UNL d   1      39.433 -10.461  -7.073  0.00  0.00    -0.266 OA
ATOM     13  H   UNL d   1      39.832 -10.380  -4.573  0.00  0.00     0.163 HD
BRANCH  11  14
ATOM     14  C   UNL d   1      39.995  -8.108  -7.119  0.00  0.00     0.180 C 
ATOM     15  N   UNL d   1      41.159  -7.525  -7.228  0.00  0.00    -0.126 NA
BRANCH  15  16
ATOM     16  O   UNL d   1      42.231  -8.186  -6.634  0.00  0.00    -0.261 OA
ATOM     17  C   UNL d   1      43.225  -8.369  -7.651  0.00  0.00     0.240 C 
ENDBRANCH  15  16
BRANCH  14  18
ATOM     18  C   UNL d   1      38.903  -7.320  -7.692  0.00  0.00     0.102 A 
ATOM     19  N   UNL d   1      37.962  -6.682  -6.890  0.00  0.00    -0.222 NA
ATOM     20  C   UNL d   1      37.196  -5.916  -7.623  0.00  0.00     0.164 A 
ATOM     21  S   UNL d   1      37.485  -5.962  -9.312  0.00  0.00    -0.062 SA
ATOM     22  C   UNL d   1      38.763  -7.063  -9.047  0.00  0.00     0.087 A 
BRANCH  20  23
ATOM     23  N   UNL d   1      36.260  -5.118  -7.100  0.00  0.00    -0.378 N 
ATOM     24  H   UNL d   1      36.525  -4.432  -6.406  0.00  0.00     0.158 HD
ATOM     25  H   UNL d   1      35.474  -4.862  -7.686  0.00  0.00     0.158 HD
ENDBRANCH  20  23
ENDBRANCH  14  18
ENDBRANCH  11  14
ENDBRANCH   5  10
BRANCH   7  26
ATOM     26  C   UNL d   1      40.538  -6.030  -0.434  0.00  0.00     0.194 C 
ATOM     27  OXT UNL d   1      40.655  -4.817  -0.323  0.00  0.00    -0.645 OA
BRANCH  26  28
ATOM     28  O   UNL d   1      41.461  -6.862   0.079  0.00  0.00    -0.772 OA
ATOM     29  H   UNL d   1      42.086  -6.456   0.719  0.00  0.00     0.167 HD
ENDBRANCH  26  28
ENDBRANCH   7  26
BRANCH   8  30
ATOM     30  C   UNL d   1      37.700  -6.205   0.489  0.00  0.00     0.216 C 
BRANCH  30  31
ATOM     31  O   UNL d   1      37.229  -7.310   1.277  0.00  0.00    -0.317 OA
BRANCH  31  32
ATOM     32  C   UNL d   1      38.077  -7.774   2.233  0.00  0.00     0.255 C 
ATOM     33  O   UNL d   1      39.243  -7.436   2.375  0.00  0.00    -0.266 OA
ATOM     34  C   UNL d   1      37.368  -8.763   3.106  0.00  0.00     0.126 C 
ENDBRANCH  31  32
ENDBRANCH  30  31
ENDBRANCH   8  30
TORSDOF 10
ENDMDL
MODEL 3
REMARK VINA RESULT:      -7.3      3.613      6.487
REMARK  10 active torsions:
REMARK  status: ('A' for Active; 'I' for Inactive)
REMARK    1  A    between atoms: O_4  and  C_21 
REMARK    2  A    between atoms: O_4  and  C_26 
REMARK    3  A    between atoms: O_5  and  C_22 
REMARK    4  A    between atoms: O_8  and  N_12 
REMARK    5  A    between atoms: CA_16  and  N_11 
REMARK       I    between atoms: N_11  and  C_23 
REMARK    6  A    between atoms: N_14  and  C_29 
REMARK    7  A    between atoms: CA_18  and  C_22 
REMARK    8  A    between atoms: C_19  and  C_21 
REMARK    9  A    between atoms: C_23  and  C_24 
REMARK   10  A    between atoms: C_24  and  C_25 
ROOT
ATOM      1  S   UNL d   1      38.295 -10.740  -4.014  0.00  0.00    -0.136 SA
ATOM      2  O   UNL d   1      39.771  -8.809  -0.642  0.00  0.00    -0.271 OA
ATOM      3  N   UNL d   1      38.911  -8.464  -2.783  0.00  0.00    -0.293 N 
ATOM      4  C   UNL d   1      39.410  -9.309  -3.861  0.00  0.00     0.187 C 
ATOM      5  CA  UNL d   1      40.701  -9.494  -2.989  0.00  0.00     0.211 C 
ATOM      6  C   UNL d   1      39.785  -8.943  -1.850  0.00  0.00     0.251 C 
ATOM      7  CA  UNL d   1      37.611  -8.034  -2.682  0.00  0.00     0.117 C 
ATOM      8  C   UNL d   1      36.628  -8.577  -3.460  0.00  0.00    -0.013 C 
ATOM      9  C   UNL d   1      36.867  -9.703  -4.448  0.00  0.00     0.115 C 
ENDROOT
BRANCH   5  10
ATOM     10  N   UNL d   1      41.316 -10.854  -2.995  0.00  0.00    -0.339 N 
ATOM     11  C   UNL d   1      42.688 -10.968  -3.272  0.00  0.00     0.275 C 
ATOM     12  O   UNL d   1      43.246 -12.060  -3.304  0.00  0.00    -0.266 OA
ATOM     13  H   UNL d   1      40.879 -11.636  -2.509  0.00  0.00     0.163 HD
BRANCH  11  14
ATOM     14  C   UNL d   1      43.449  -9.667  -3.599  0.00  0.00     0.180 C 
ATOM     15  N   UNL d   1      43.517  -9.084  -4.765  0.00  0.00    -0.126 NA
BRANCH  15  16
ATOM     16  O   UNL d   1      42.855  -9.726  -5.809  0.00  0.00    -0.261 OA
ATOM     17  C   UNL d   1      42.027  -8.745  -6.446  0.00  0.00     0.240 C 
ENDBRANCH  15  16
BRANCH  14  18
ATOM     18  C   UNL d   1      44.234  -8.983  -2.569  0.00  0.00     0.102 A 
ATOM     19  N   UNL d   1      43.857  -7.744  -2.064  0.00  0.00    -0.222 NA
ATOM     20  C   UNL d   1      44.619  -7.424  -1.050  0.00  0.00     0.164 A 
ATOM     21  S   UNL d   1      45.878  -8.527  -0.679  0.00  0.00    -0.062 SA
ATOM     22  C   UNL d   1      45.343  -9.537  -1.948  0.00  0.00     0.087 A 
BRANCH  20  23
ATOM     23  N   UNL d   1      44.423  -6.322  -0.318  0.00  0.00    -0.378 N 
ATOM     24  H   UNL d   1      45.110  -6.062   0.378  0.00  0.00     0.158 HD
ATOM     25  H   UNL d   1      43.922  -5.552  -0.745  0.00  0.00     0.158 HD
ENDBRANCH  20  23
ENDBRANCH  14  18
ENDBRANCH  11  14
ENDBRANCH   5  10
BRANCH   7  26
ATOM     26  C   UNL d   1      37.317  -6.841  -1.793  0.00  0.00     0.194 C 
ATOM     27  OXT UNL d   1      36.869  -6.933  -0.659  0.00  0.00    -0.645 OA
BRANCH  26  28
ATOM     28  O   UNL d   1      37.441  -5.643  -2.390  0.00  0.00    -0.772 OA
ATOM     29  H   UNL d   1      37.651  -4.893  -1.792  0.00  0.00     0.167 HD
ENDBRANCH  26  28
ENDBRANCH   7  26
BRANCH   8  30
ATOM     30  C   UNL d   1      35.165  -8.175  -3.382  0.00  0.00     0.216 C 
BRANCH  30  31
ATOM     31  O   UNL d   1      34.719  -7.691  -4.660  0.00  0.00    -0.317 OA
BRANCH  31  32
ATOM     32  C   UNL d   1      35.197  -6.480  -5.046  0.00  0.00     0.255 C 
ATOM     33  O   UNL d   1      35.252  -5.479  -4.345  0.00  0.00    -0.266 OA
ATOM     34  C   UNL d   1      35.665  -6.546  -6.468  0.00  0.00     0.126 C 
ENDBRANCH  31  32
ENDBRANCH  30  31
ENDBRANCH   8  30
TORSDOF 10
ENDMDL
MODEL 4
REMARK VINA RESULT:      -7.0      3.575      8.577
REMARK  10 active torsions:
REMARK  status: ('A' for Active; 'I' for Inactive)
REMARK    1  A    between atoms: O_4  and  C_21 
REMARK    2  A    between atoms: O_4  and  C_26 
REMARK    3  A    between atoms: O_5  and  C_22 
REMARK    4  A    between atoms: O_8  and  N_12 
REMARK    5  A    between atoms: CA_16  and  N_11 
REMARK       I    between atoms: N_11  and  C_23 
REMARK    6  A    between atoms: N_14  and  C_29 
REMARK    7  A    between atoms: CA_18  and  C_22 
REMARK    8  A    between atoms: C_19  and  C_21 
REMARK    9  A    between atoms: C_23  and  C_24 
REMARK   10  A    between atoms: C_24  and  C_25 
ROOT
ATOM      1  S   UNL d   1      39.535  -8.886  -7.462  0.00  0.00    -0.136 SA
ATOM      2  O   UNL d   1      35.532  -8.069  -6.696  0.00  0.00    -0.271 OA
ATOM      3  N   UNL d   1      37.599  -7.089  -7.158  0.00  0.00    -0.293 N 
ATOM      4  C   UNL d   1      38.765  -7.590  -6.442  0.00  0.00     0.187 C 
ATOM      5  CA  UNL d   1      37.762  -8.053  -5.328  0.00  0.00     0.211 C 
ATOM      6  C   UNL d   1      36.702  -7.841  -6.455  0.00  0.00     0.251 C 
ATOM      7  CA  UNL d   1      37.618  -6.677  -8.468  0.00  0.00     0.117 C 
ATOM      8  C   UNL d   1      38.690  -6.945  -9.272  0.00  0.00    -0.013 C 
ATOM      9  C   UNL d   1      39.903  -7.734  -8.819  0.00  0.00     0.115 C 
ENDROOT
BRANCH   5  10
ATOM     10  N   UNL d   1      38.054  -9.365  -4.677  0.00  0.00    -0.339 N 
ATOM     11  C   UNL d   1      37.532  -9.609  -3.397  0.00  0.00     0.275 C 
ATOM     12  O   UNL d   1      37.748 -10.663  -2.808  0.00  0.00    -0.266 OA
ATOM     13  H   UNL d   1      38.325 -10.180  -5.226  0.00  0.00     0.163 HD
BRANCH  11  14
ATOM     14  C   UNL d   1      36.729  -8.469  -2.737  0.00  0.00     0.180 C 
ATOM     15  N   UNL d   1      35.467  -8.198  -2.935  0.00  0.00    -0.126 NA
BRANCH  15  16
ATOM     16  O   UNL d   1      34.805  -9.010  -3.853  0.00  0.00    -0.261 OA
ATOM     17  C   UNL d   1      33.462  -8.520  -3.953  0.00  0.00     0.240 C 
ENDBRANCH  15  16
BRANCH  14  18
ATOM     18  C   UNL d   1      37.382  -7.528  -1.825  0.00  0.00     0.102 A 
ATOM     19  N   UNL d   1      36.740  -7.043  -0.692  0.00  0.00    -0.222 NA
ATOM     20  C   UNL d   1      37.580  -6.356   0.039  0.00  0.00     0.164 A 
ATOM     21  S   UNL d   1      39.158  -6.172  -0.606  0.00  0.00    -0.062 SA
ATOM     22  C   UNL d   1      38.700  -7.118  -1.952  0.00  0.00     0.087 A 
BRANCH  20  23
ATOM     23  N   UNL d   1      37.254  -5.847   1.231  0.00  0.00    -0.378 N 
ATOM     24  H   UNL d   1      36.453  -6.219   1.725  0.00  0.00     0.158 HD
ATOM     25  H   UNL d   1      38.001  -5.493   1.816  0.00  0.00     0.158 HD
ENDBRANCH  20  23
ENDBRANCH  14  18
ENDBRANCH  11  14
ENDBRANCH   5  10
BRANCH   7  26
ATOM     26  C   UNL d   1      36.490  -5.793  -8.959  0.00  0.00     0.194 C 
ATOM     27  OXT UNL d   1      36.424  -4.591  -8.741  0.00  0.00    -0.645 OA
BRANCH  26  28
ATOM     28  O   UNL d   1      35.466  -6.445  -9.537  0.00  0.00    -0.772 OA
ATOM     29  H   UNL d   1      35.001  -7.093  -8.964  0.00  0.00     0.167 HD
ENDBRANCH  26  28
ENDBRANCH   7  26
BRANCH   8  30
ATOM     30  C   UNL d   1      38.770  -6.550 -10.737  0.00  0.00     0.216 C 
BRANCH  30  31
ATOM     31  O   UNL d   1      38.953  -5.129 -10.855  0.00  0.00    -0.317 OA
BRANCH  31  32
ATOM     32  C   UNL d   1      39.171  -4.650 -12.107  0.00  0.00     0.255 C 
ATOM     33  O   UNL d   1      40.114  -3.950 -12.448  0.00  0.00    -0.266 OA
ATOM     34  C   UNL d   1      38.085  -5.118 -13.027  0.00  0.00     0.126 C 
ENDBRANCH  31  32
ENDBRANCH  30  31
ENDBRANCH   8  30
TORSDOF 10
ENDMDL
MODEL 5
REMARK VINA RESULT:      -7.0      2.822      4.371
REMARK  10 active torsions:
REMARK  status: ('A' for Active; 'I' for Inactive)
REMARK    1  A    between atoms: O_4  and  C_21 
REMARK    2  A    between atoms: O_4  and  C_26 
REMARK    3  A    between atoms: O_5  and  C_22 
REMARK    4  A    between atoms: O_8  and  N_12 
REMARK    5  A    between atoms: CA_16  and  N_11 
REMARK       I    between atoms: N_11  and  C_23 
REMARK    6  A    between atoms: N_14  and  C_29 
REMARK    7  A    between atoms: CA_18  and  C_22 
REMARK    8  A    between atoms: C_19  and  C_21 
REMARK    9  A    between atoms: C_23  and  C_24 
REMARK   10  A    between atoms: C_24  and  C_25 
ROOT
ATOM      1  S   UNL d   1      37.739  -8.275  -3.624  0.00  0.00    -0.136 SA
ATOM      2  O   UNL d   1      41.571  -9.508  -2.586  0.00  0.00    -0.271 OA
ATOM      3  N   UNL d   1      40.222  -7.634  -2.919  0.00  0.00    -0.293 N 
ATOM      4  C   UNL d   1      39.366  -7.612  -4.099  0.00  0.00     0.187 C 
ATOM      5  CA  UNL d   1      40.391  -8.611  -4.741  0.00  0.00     0.211 C 
ATOM      6  C   UNL d   1      40.859  -8.791  -3.262  0.00  0.00     0.251 C 
ATOM      7  CA  UNL d   1      39.864  -7.115  -1.698  0.00  0.00     0.117 C 
ATOM      8  C   UNL d   1      38.570  -6.760  -1.439  0.00  0.00    -0.013 C 
ATOM      9  C   UNL d   1      37.436  -6.939  -2.429  0.00  0.00     0.115 C 
ENDROOT
BRANCH   5  10
ATOM     10  N   UNL d   1      39.814  -9.701  -5.584  0.00  0.00    -0.339 N 
ATOM     11  C   UNL d   1      39.937  -9.605  -6.979  0.00  0.00     0.275 C 
ATOM     12  O   UNL d   1      39.473 -10.462  -7.723  0.00  0.00    -0.266 OA
ATOM     13  H   UNL d   1      39.634 -10.628  -5.201  0.00  0.00     0.163 HD
BRANCH  11  14
ATOM     14  C   UNL d   1      40.625  -8.343  -7.539  0.00  0.00     0.180 C 
ATOM     15  N   UNL d   1      40.060  -7.184  -7.747  0.00  0.00    -0.126 NA
BRANCH  15  16
ATOM     16  O   UNL d   1      38.700  -7.106  -7.455  0.00  0.00    -0.261 OA
ATOM     17  C   UNL d   1      38.024  -6.819  -8.685  0.00  0.00     0.240 C 
ENDBRANCH  15  16
BRANCH  14  18
ATOM     18  C   UNL d   1      42.031  -8.377  -7.944  0.00  0.00     0.102 A 
ATOM     19  N   UNL d   1      42.864  -7.275  -7.789  0.00  0.00    -0.222 NA
ATOM     20  C   UNL d   1      44.099  -7.605  -8.068  0.00  0.00     0.164 A 
ATOM     21  S   UNL d   1      44.341  -9.214  -8.610  0.00  0.00    -0.062 SA
ATOM     22  C   UNL d   1      42.671  -9.511  -8.420  0.00  0.00     0.087 A 
BRANCH  20  23
ATOM     23  N   UNL d   1      45.124  -6.761  -7.919  0.00  0.00    -0.378 N 
ATOM     24  H   UNL d   1      46.067  -7.096  -8.068  0.00  0.00     0.158 HD
ATOM     25  H   UNL d   1      44.970  -5.784  -8.138  0.00  0.00     0.158 HD
ENDBRANCH  20  23
ENDBRANCH  14  18
ENDBRANCH  11  14
ENDBRANCH   5  10
BRANCH   7  26
ATOM     26  C   UNL d   1      40.961  -6.809  -0.699  0.00  0.00     0.194 C 
ATOM     27  OXT UNL d   1      41.609  -5.771  -0.698  0.00  0.00    -0.645 OA
BRANCH  26  28
ATOM     28  O   UNL d   1      41.290  -7.827   0.115  0.00  0.00    -0.772 OA
ATOM     29  H   UNL d   1      41.330  -8.711  -0.310  0.00  0.00     0.167 HD
ENDBRANCH  26  28
ENDBRANCH   7  26
BRANCH   8  30
ATOM     30  C   UNL d   1      38.094  -6.210  -0.105  0.00  0.00     0.216 C 
BRANCH  30  31
ATOM     31  O   UNL d   1      37.549  -7.270   0.698  0.00  0.00    -0.317 OA
BRANCH  31  32
ATOM     32  C   UNL d   1      38.215  -7.561   1.846  0.00  0.00     0.255 C 
ATOM     33  O   UNL d   1      39.250  -7.030   2.222  0.00  0.00    -0.266 OA
ATOM     34  C   UNL d   1      37.487  -8.630   2.601  0.00  0.00     0.126 C 
ENDBRANCH  31  32
ENDBRANCH  30  31
ENDBRANCH   8  30
TORSDOF 10
ENDMDL
MODEL 6
REMARK VINA RESULT:      -6.9      2.865      3.927
REMARK  10 active torsions:
REMARK  status: ('A' for Active; 'I' for Inactive)
REMARK    1  A    between atoms: O_4  and  C_21 
REMARK    2  A    between atoms: O_4  and  C_26 
REMARK    3  A    between atoms: O_5  and  C_22 
REMARK    4  A    between atoms: O_8  and  N_12 
REMARK    5  A    between atoms: CA_16  and  N_11 
REMARK       I    between atoms: N_11  and  C_23 
REMARK    6  A    between atoms: N_14  and  C_29 
REMARK    7  A    between atoms: CA_18  and  C_22 
REMARK    8  A    between atoms: C_19  and  C_21 
REMARK    9  A    between atoms: C_23  and  C_24 
REMARK   10  A    between atoms: C_24  and  C_25 
ROOT
ATOM      1  S   UNL d   1      42.156  -7.488  -2.168  0.00  0.00    -0.136 SA
ATOM      2  O   UNL d   1      39.177  -6.863  -4.998  0.00  0.00    -0.271 OA
ATOM      3  N   UNL d   1      39.635  -7.849  -2.934  0.00  0.00    -0.293 N 
ATOM      4  C   UNL d   1      40.871  -8.610  -2.803  0.00  0.00     0.187 C 
ATOM      5  CA  UNL d   1      40.797  -8.813  -4.357  0.00  0.00     0.211 C 
ATOM      6  C   UNL d   1      39.775  -7.636  -4.275  0.00  0.00     0.251 C 
ATOM      7  CA  UNL d   1      39.101  -7.071  -1.936  0.00  0.00     0.117 C 
ATOM      8  C   UNL d   1      39.829  -6.759  -0.823  0.00  0.00    -0.013 C 
ATOM      9  C   UNL d   1      41.266  -7.193  -0.612  0.00  0.00     0.115 C 
ENDROOT
BRANCH   5  10
ATOM     10  N   UNL d   1      42.094  -8.757  -5.095  0.00  0.00    -0.339 N 
ATOM     11  C   UNL d   1      42.136  -9.236  -6.414  0.00  0.00     0.275 C 
ATOM     12  O   UNL d   1      43.175  -9.227  -7.066  0.00  0.00    -0.266 OA
ATOM     13  H   UNL d   1      42.836  -8.117  -4.814  0.00  0.00     0.163 HD
BRANCH  11  14
ATOM     14  C   UNL d   1      40.834  -9.833  -6.986  0.00  0.00     0.180 C 
ATOM     15  N   UNL d   1      40.317 -10.992  -6.681  0.00  0.00    -0.126 NA
BRANCH  15  16
ATOM     16  O   UNL d   1      41.036 -11.761  -5.769  0.00  0.00    -0.261 OA
ATOM     17  C   UNL d   1      40.079 -12.475  -4.976  0.00  0.00     0.240 C 
ENDBRANCH  15  16
BRANCH  14  18
ATOM     18  C   UNL d   1      40.071  -9.115  -8.009  0.00  0.00     0.102 A 
ATOM     19  N   UNL d   1      39.223  -9.779  -8.889  0.00  0.00    -0.222 NA
ATOM     20  C   UNL d   1      38.538  -8.912  -9.589  0.00  0.00     0.164 A 
ATOM     21  S   UNL d   1      38.908  -7.261  -9.310  0.00  0.00    -0.062 SA
ATOM     22  C   UNL d   1      40.048  -7.734  -8.130  0.00  0.00     0.087 A 
BRANCH  20  23
ATOM     23  N   UNL d   1      37.583  -9.273 -10.452  0.00  0.00    -0.378 N 
ATOM     24  H   UNL d   1      36.770  -8.682 -10.567  0.00  0.00     0.158 HD
ATOM     25  H   UNL d   1      37.860  -9.796 -11.274  0.00  0.00     0.158 HD
ENDBRANCH  20  23
ENDBRANCH  14  18
ENDBRANCH  11  14
ENDBRANCH   5  10
BRANCH   7  26
ATOM     26  C   UNL d   1      37.636  -6.691  -2.029  0.00  0.00     0.194 C 
ATOM     27  OXT UNL d   1      36.723  -7.402  -1.632  0.00  0.00    -0.645 OA
BRANCH  26  28
ATOM     28  O   UNL d   1      37.383  -5.567  -2.721  0.00  0.00    -0.772 OA
ATOM     29  H   UNL d   1      36.442  -5.286  -2.742  0.00  0.00     0.167 HD
ENDBRANCH  26  28
ENDBRANCH   7  26
BRANCH   8  30
ATOM     30  C   UNL d   1      39.317  -5.881   0.306  0.00  0.00     0.216 C 
BRANCH  30  31
ATOM     31  O   UNL d   1      39.146  -6.663   1.500  0.00  0.00    -0.317 OA
BRANCH  31  32
ATOM     32  C   UNL d   1      37.883  -7.083   1.770  0.00  0.00     0.255 C 
ATOM     33  O   UNL d   1      36.864  -6.429   1.601  0.00  0.00    -0.266 OA
ATOM     34  C   UNL d   1      37.914  -8.483   2.301  0.00  0.00     0.126 C 
ENDBRANCH  31  32
ENDBRANCH  30  31
ENDBRANCH   8  30
TORSDOF 10
ENDMDL
MODEL 7
REMARK VINA RESULT:      -6.9      3.931      7.566
REMARK  10 active torsions:
REMARK  status: ('A' for Active; 'I' for Inactive)
REMARK    1  A    between atoms: O_4  and  C_21 
REMARK    2  A    between atoms: O_4  and  C_26 
REMARK    3  A    between atoms: O_5  and  C_22 
REMARK    4  A    between atoms: O_8  and  N_12 
REMARK    5  A    between atoms: CA_16  and  N_11 
REMARK       I    between atoms: N_11  and  C_23 
REMARK    6  A    between atoms: N_14  and  C_29 
REMARK    7  A    between atoms: CA_18  and  C_22 
REMARK    8  A    between atoms: C_19  and  C_21 
REMARK    9  A    between atoms: C_23  and  C_24 
REMARK   10  A    between atoms: C_24  and  C_25 
ROOT
ATOM      1  S   UNL d   1      39.268  -6.335  -0.902  0.00  0.00    -0.136 SA
ATOM      2  O   UNL d   1      41.660  -7.492  -4.099  0.00  0.00    -0.271 OA
ATOM      3  N   UNL d   1      40.081  -8.251  -2.558  0.00  0.00    -0.293 N 
ATOM      4  C   UNL d   1      40.241  -7.850  -1.165  0.00  0.00     0.187 C 
ATOM      5  CA  UNL d   1      41.766  -7.678  -1.492  0.00  0.00     0.211 C 
ATOM      6  C   UNL d   1      41.263  -7.706  -2.970  0.00  0.00     0.251 C 
ATOM      7  CA  UNL d   1      38.866  -8.382  -3.186  0.00  0.00     0.117 C 
ATOM      8  C   UNL d   1      37.723  -7.901  -2.612  0.00  0.00    -0.013 C 
ATOM      9  C   UNL d   1      37.696  -7.162  -1.288  0.00  0.00     0.115 C 
ENDROOT
BRANCH   5  10
ATOM     10  N   UNL d   1      42.453  -6.515  -0.855  0.00  0.00    -0.339 N 
ATOM     11  C   UNL d   1      43.794  -6.660  -0.466  0.00  0.00     0.275 C 
ATOM     12  O   UNL d   1      44.407  -5.744   0.074  0.00  0.00    -0.266 OA
ATOM     13  H   UNL d   1      42.111  -5.563  -0.981  0.00  0.00     0.163 HD
BRANCH  11  14
ATOM     14  C   UNL d   1      44.445  -8.041  -0.687  0.00  0.00     0.180 C 
ATOM     15  N   UNL d   1      44.712  -8.925   0.236  0.00  0.00    -0.126 NA
BRANCH  15  16
ATOM     16  O   UNL d   1      44.396  -8.559   1.543  0.00  0.00    -0.261 OA
ATOM     17  C   UNL d   1      45.394  -9.139   2.392  0.00  0.00     0.240 C 
ENDBRANCH  15  16
BRANCH  14  18
ATOM     18  C   UNL d   1      44.877  -8.457  -2.022  0.00  0.00     0.102 A 
ATOM     19  N   UNL d   1      45.681  -7.647  -2.816  0.00  0.00    -0.222 NA
ATOM     20  C   UNL d   1      46.062  -8.302  -3.882  0.00  0.00     0.164 A 
ATOM     21  S   UNL d   1      45.430  -9.886  -4.055  0.00  0.00    -0.062 SA
ATOM     22  C   UNL d   1      44.611  -9.703  -2.568  0.00  0.00     0.087 A 
BRANCH  20  23
ATOM     23  N   UNL d   1      46.915  -7.794  -4.777  0.00  0.00    -0.378 N 
ATOM     24  H   UNL d   1      46.779  -7.994  -5.760  0.00  0.00     0.158 HD
ATOM     25  H   UNL d   1      47.341  -6.899  -4.570  0.00  0.00     0.158 HD
ENDBRANCH  20  23
ENDBRANCH  14  18
ENDBRANCH  11  14
ENDBRANCH   5  10
BRANCH   7  26
ATOM     26  C   UNL d   1      38.802  -9.202  -4.459  0.00  0.00     0.194 C 
ATOM     27  OXT UNL d   1      38.590 -10.406  -4.481  0.00  0.00    -0.645 OA
BRANCH  26  28
ATOM     28  O   UNL d   1      39.143  -8.541  -5.579  0.00  0.00    -0.772 OA
ATOM     29  H   UNL d   1      39.832  -8.972  -6.130  0.00  0.00     0.167 HD
ENDBRANCH  26  28
ENDBRANCH   7  26
BRANCH   8  30
ATOM     30  C   UNL d   1      36.351  -7.981  -3.259  0.00  0.00     0.216 C 
BRANCH  30  31
ATOM     31  O   UNL d   1      35.622  -9.101  -2.730  0.00  0.00    -0.317 OA
BRANCH  31  32
ATOM     32  C   UNL d   1      34.308  -9.178  -3.066  0.00  0.00     0.255 C 
ATOM     33  O   UNL d   1      33.404  -9.541  -2.327  0.00  0.00    -0.266 OA
ATOM     34  C   UNL d   1      34.118  -8.738  -4.485  0.00  0.00     0.126 C 
ENDBRANCH  31  32
ENDBRANCH  30  31
ENDBRANCH   8  30
TORSDOF 10
ENDMDL
MODEL 8
REMARK VINA RESULT:      -6.8      3.035      4.278
REMARK  10 active torsions:
REMARK  status: ('A' for Active; 'I' for Inactive)
REMARK    1  A    between atoms: O_4  and  C_21 
REMARK    2  A    between atoms: O_4  and  C_26 
REMARK    3  A    between atoms: O_5  and  C_22 
REMARK    4  A    between atoms: O_8  and  N_12 
REMARK    5  A    between atoms: CA_16  and  N_11 
REMARK       I    between atoms: N_11  and  C_23 
REMARK    6  A    between atoms: N_14  and  C_29 
REMARK    7  A    between atoms: CA_18  and  C_22 
REMARK    8  A    between atoms: C_19  and  C_21 
REMARK    9  A    between atoms: C_23  and  C_24 
REMARK   10  A    between atoms: C_24  and  C_25 
ROOT
ATOM      1  S   UNL d   1      41.977  -7.701  -2.369  0.00  0.00    -0.136 SA
ATOM      2  O   UNL d   1      38.854  -7.067  -5.038  0.00  0.00    -0.271 OA
ATOM      3  N   UNL d   1      39.401  -7.986  -2.965  0.00  0.00    -0.293 N 
ATOM      4  C   UNL d   1      40.612  -8.793  -2.876  0.00  0.00     0.187 C 
ATOM      5  CA  UNL d   1      40.434  -9.055  -4.413  0.00  0.00     0.211 C 
ATOM      6  C   UNL d   1      39.465  -7.834  -4.320  0.00  0.00     0.251 C 
ATOM      7  CA  UNL d   1      38.960  -7.147  -1.971  0.00  0.00     0.117 C 
ATOM      8  C   UNL d   1      39.768  -6.821  -0.918  0.00  0.00    -0.013 C 
ATOM      9  C   UNL d   1      41.198  -7.305  -0.776  0.00  0.00     0.115 C 
ENDROOT
BRANCH   5  10
ATOM     10  N   UNL d   1      41.683  -9.084  -5.229  0.00  0.00    -0.339 N 
ATOM     11  C   UNL d   1      41.788 -10.029  -6.262  0.00  0.00     0.275 C 
ATOM     12  O   UNL d   1      42.794 -10.109  -6.958  0.00  0.00    -0.266 OA
ATOM     13  H   UNL d   1      42.299  -8.274  -5.284  0.00  0.00     0.163 HD
BRANCH  11  14
ATOM     14  C   UNL d   1      40.608 -11.007  -6.441  0.00  0.00     0.180 C 
ATOM     15  N   UNL d   1      39.517 -10.783  -7.122  0.00  0.00    -0.126 NA
BRANCH  15  16
ATOM     16  O   UNL d   1      39.414  -9.528  -7.716  0.00  0.00    -0.261 OA
ATOM     17  C   UNL d   1      39.426  -9.733  -9.134  0.00  0.00     0.240 C 
ENDBRANCH  15  16
BRANCH  14  18
ATOM     18  C   UNL d   1      40.613 -12.312  -5.777  0.00  0.00     0.102 A 
ATOM     19  N   UNL d   1      39.513 -13.161  -5.825  0.00  0.00    -0.222 NA
ATOM     20  C   UNL d   1      39.821 -14.321  -5.303  0.00  0.00     0.164 A 
ATOM     21  S   UNL d   1      41.401 -14.455  -4.651  0.00  0.00    -0.062 SA
ATOM     22  C   UNL d   1      41.719 -12.849  -5.137  0.00  0.00     0.087 A 
BRANCH  20  23
ATOM     23  N   UNL d   1      38.977 -15.357  -5.297  0.00  0.00    -0.378 N 
ATOM     24  H   UNL d   1      38.877 -15.909  -4.455  0.00  0.00     0.158 HD
ATOM     25  H   UNL d   1      38.151 -15.300  -5.880  0.00  0.00     0.158 HD
ENDBRANCH  20  23
ENDBRANCH  14  18
ENDBRANCH  11  14
ENDBRANCH   5  10
BRANCH   7  26
ATOM     26  C   UNL d   1      37.509  -6.710  -1.991  0.00  0.00     0.194 C 
ATOM     27  OXT UNL d   1      36.590  -7.384  -1.546  0.00  0.00    -0.645 OA
BRANCH  26  28
ATOM     28  O   UNL d   1      37.266  -5.578  -2.675  0.00  0.00    -0.772 OA
ATOM     29  H   UNL d   1      36.975  -5.701  -3.605  0.00  0.00     0.167 HD
ENDBRANCH  26  28
ENDBRANCH   7  26
BRANCH   8  30
ATOM     30  C   UNL d   1      39.362  -5.876   0.201  0.00  0.00     0.216 C 
BRANCH  30  31
ATOM     31  O   UNL d   1      39.199  -6.608   1.427  0.00  0.00    -0.317 OA
BRANCH  31  32
ATOM     32  C   UNL d   1      37.936  -7.008   1.727  0.00  0.00     0.255 C 
ATOM     33  O   UNL d   1      36.916  -6.370   1.509  0.00  0.00    -0.266 OA
ATOM     34  C   UNL d   1      37.968  -8.366   2.359  0.00  0.00     0.126 C 
ENDBRANCH  31  32
ENDBRANCH  30  31
ENDBRANCH   8  30
TORSDOF 10
ENDMDL
MODEL 9
REMARK VINA RESULT:      -6.7      3.617      5.438
REMARK  10 active torsions:
REMARK  status: ('A' for Active; 'I' for Inactive)
REMARK    1  A    between atoms: O_4  and  C_21 
REMARK    2  A    between atoms: O_4  and  C_26 
REMARK    3  A    between atoms: O_5  and  C_22 
REMARK    4  A    between atoms: O_8  and  N_12 
REMARK    5  A    between atoms: CA_16  and  N_11 
REMARK       I    between atoms: N_11  and  C_23 
REMARK    6  A    between atoms: N_14  and  C_29 
REMARK    7  A    between atoms: CA_18  and  C_22 
REMARK    8  A    between atoms: C_19  and  C_21 
REMARK    9  A    between atoms: C_23  and  C_24 
REMARK   10  A    between atoms: C_24  and  C_25 
ROOT
ATOM      1  S   UNL d   1      39.213  -7.239  -5.254  0.00  0.00    -0.136 SA
ATOM      2  O   UNL d   1      35.365  -6.513  -6.649  0.00  0.00    -0.271 OA
ATOM      3  N   UNL d   1      36.750  -8.136  -5.704  0.00  0.00    -0.293 N 
ATOM      4  C   UNL d   1      38.096  -8.280  -6.244  0.00  0.00     0.187 C 
ATOM      5  CA  UNL d   1      37.525  -7.665  -7.570  0.00  0.00     0.211 C 
ATOM      6  C   UNL d   1      36.348  -7.228  -6.641  0.00  0.00     0.251 C 
ATOM      7  CA  UNL d   1      36.435  -8.276  -4.374  0.00  0.00     0.117 C 
ATOM      8  C   UNL d   1      37.413  -8.319  -3.422  0.00  0.00    -0.013 C 
ATOM      9  C   UNL d   1      38.891  -8.176  -3.730  0.00  0.00     0.115 C 
ENDROOT
BRANCH   5  10
ATOM     10  N   UNL d   1      38.421  -6.720  -8.301  0.00  0.00    -0.339 N 
ATOM     11  C   UNL d   1      38.668  -6.948  -9.664  0.00  0.00     0.275 C 
ATOM     12  O   UNL d   1      39.404  -6.213 -10.313  0.00  0.00    -0.266 OA
ATOM     13  H   UNL d   1      38.591  -5.776  -7.955  0.00  0.00     0.163 HD
BRANCH  11  14
ATOM     14  C   UNL d   1      38.024  -8.200 -10.294  0.00  0.00     0.180 C 
ATOM     15  N   UNL d   1      38.485  -9.420 -10.231  0.00  0.00    -0.126 NA
BRANCH  15  16
ATOM     16  O   UNL d   1      39.688  -9.584  -9.549  0.00  0.00    -0.261 OA
ATOM     17  C   UNL d   1      39.540 -10.736  -8.710  0.00  0.00     0.240 C 
ENDBRANCH  15  16
BRANCH  14  18
ATOM     18  C   UNL d   1      36.803  -8.089 -11.094  0.00  0.00     0.102 A 
ATOM     19  N   UNL d   1      35.718  -8.935 -10.895  0.00  0.00    -0.222 NA
ATOM     20  C   UNL d   1      34.699  -8.532 -11.611  0.00  0.00     0.164 A 
ATOM     21  S   UNL d   1      34.983  -7.179 -12.624  0.00  0.00    -0.062 SA
ATOM     22  C   UNL d   1      36.583  -7.094 -12.034  0.00  0.00     0.087 A 
BRANCH  20  23
ATOM     23  N   UNL d   1      33.497  -9.112 -11.547  0.00  0.00    -0.378 N 
ATOM     24  H   UNL d   1      33.253  -9.657 -10.730  0.00  0.00     0.158 HD
ATOM     25  H   UNL d   1      32.722  -8.650 -12.009  0.00  0.00     0.158 HD
ENDBRANCH  20  23
ENDBRANCH  14  18
ENDBRANCH  11  14
ENDBRANCH   5  10
BRANCH   7  26
ATOM     26  C   UNL d   1      34.988  -8.532  -4.003  0.00  0.00     0.194 C 
ATOM     27  OXT UNL d   1      34.200  -7.649  -3.692  0.00  0.00    -0.645 OA
BRANCH  26  28
ATOM     28  O   UNL d   1      34.650  -9.828  -3.889  0.00  0.00    -0.772 OA
ATOM     29  H   UNL d   1      33.802 -10.082  -4.314  0.00  0.00     0.167 HD
ENDBRANCH  26  28
ENDBRANCH   7  26
BRANCH   8  30
ATOM     30  C   UNL d   1      37.141  -8.441  -1.932  0.00  0.00     0.216 C 
BRANCH  30  31
ATOM     31  O   UNL d   1      36.760  -7.164  -1.395  0.00  0.00    -0.317 OA
BRANCH  31  32
ATOM     32  C   UNL d   1      37.710  -6.498  -0.689  0.00  0.00     0.255 C 
ATOM     33  O   UNL d   1      38.569  -5.768  -1.163  0.00  0.00    -0.266 OA
ATOM     34  C   UNL d   1      37.550  -6.780   0.774  0.00  0.00     0.126 C 
ENDBRANCH  31  32
ENDBRANCH  30  31
ENDBRANCH   8  30
TORSDOF 10
ENDMDL
