MODEL 1
REMARK VINA RESULT:      -7.6      0.000      0.000
REMARK  10 active torsions:
REMARK  status: ('A' for Active; 'I' for Inactive)
REMARK    1  A    between atoms: O_4  and  C_21 
REMARK    2  A    between atoms: O_4  and  C_26 
REMARK    3  A    between atoms: O_5  and  C_22 
REMARK    4  A    between atoms: O_8  and  N_12 
REMARK    5  A    between atoms: CA_16  and  N_11 
REMARK       I    between atoms: N_11  and  C_23 
REMARK    6  A    between atoms: N_14  and  C_29 
REMARK    7  A    between atoms: CA_18  and  C_22 
REMARK    8  A    between atoms: C_19  and  C_21 
REMARK    9  A    between atoms: C_23  and  C_24 
REMARK   10  A    between atoms: C_24  and  C_25 
ROOT
ATOM      1  S   UNL d   1      38.630  -9.640  -1.985  0.00  0.00    -0.136 SA
ATOM      2  O   UNL d   1      41.949  -7.298  -2.863  0.00  0.00    -0.271 OA
ATOM      3  N   UNL d   1      39.733  -7.226  -2.136  0.00  0.00    -0.293 N 
ATOM      4  C   UNL d   1      38.757  -8.042  -2.847  0.00  0.00     0.187 C 
ATOM      5  CA  UNL d   1      39.729  -7.963  -4.076  0.00  0.00     0.211 C 
ATOM      6  C   UNL d   1      40.758  -7.500  -2.996  0.00  0.00     0.251 C 
ATOM      7  CA  UNL d   1      39.712  -7.005  -0.781  0.00  0.00     0.117 C 
ATOM      8  C   UNL d   1      38.907  -7.746   0.038  0.00  0.00    -0.013 C 
ATOM      9  C   UNL d   1      38.022  -8.875  -0.452  0.00  0.00     0.115 C 
ENDROOT
BRANCH   5  10
ATOM     10  N   UNL d   1      39.864  -9.205  -4.895  0.00  0.00    -0.339 N 
ATOM     11  C   UNL d   1      39.145  -9.296  -6.097  0.00  0.00     0.275 C 
ATOM     12  O   UNL d   1      39.206 -10.295  -6.805  0.00  0.00    -0.266 OA
ATOM     13  H   UNL d   1      40.669  -9.822  -4.792  0.00  0.00     0.163 HD
BRANCH  11  14
ATOM     14  C   UNL d   1      38.224  -8.112  -6.456  0.00  0.00     0.180 C 
ATOM     15  N   UNL d   1      38.517  -7.120  -7.254  0.00  0.00    -0.126 NA
BRANCH  15  16
ATOM     16  O   UNL d   1      39.796  -7.136  -7.804  0.00  0.00    -0.261 OA
ATOM     17  C   UNL d   1      39.653  -7.491  -9.185  0.00  0.00     0.240 C 
ENDBRANCH  15  16
BRANCH  14  18
ATOM     18  C   UNL d   1      36.897  -7.988  -5.849  0.00  0.00     0.102 A 
ATOM     19  N   UNL d   1      36.388  -8.963  -4.998  0.00  0.00    -0.222 NA
ATOM     20  C   UNL d   1      35.269  -8.548  -4.462  0.00  0.00     0.164 A 
ATOM     21  S   UNL d   1      34.706  -7.018  -4.992  0.00  0.00    -0.062 SA
ATOM     22  C   UNL d   1      36.085  -6.873  -5.988  0.00  0.00     0.087 A 
BRANCH  20  23
ATOM     23  N   UNL d   1      34.607  -9.249  -3.537  0.00  0.00    -0.378 N 
ATOM     24  H   UNL d   1      34.371 -10.215  -3.723  0.00  0.00     0.158 HD
ATOM     25  H   UNL d   1      34.769  -9.021  -2.563  0.00  0.00     0.158 HD
ENDBRANCH  20  23
ENDBRANCH  14  18
ENDBRANCH  11  14
ENDBRANCH   5  10
BRANCH   7  26
ATOM     26  C   UNL d   1      40.489  -5.824  -0.233  0.00  0.00     0.194 C 
ATOM     27  OXT UNL d   1      39.970  -4.773   0.117  0.00  0.00    -0.645 OA
BRANCH  26  28
ATOM     28  O   UNL d   1      41.826  -5.946  -0.293  0.00  0.00    -0.772 OA
ATOM     29  H   UNL d   1      42.193  -6.139  -1.183  0.00  0.00     0.167 HD
ENDBRANCH  26  28
ENDBRANCH   7  26
BRANCH   8  30
ATOM     30  C   UNL d   1      38.853  -7.581   1.548  0.00  0.00     0.216 C 
BRANCH  30  31
ATOM     31  O   UNL d   1      37.568  -7.070   1.941  0.00  0.00    -0.317 OA
BRANCH  31  32
ATOM     32  C   UNL d   1      37.026  -7.604   3.067  0.00  0.00     0.255 C 
ATOM     33  O   UNL d   1      36.305  -7.014   3.858  0.00  0.00    -0.266 OA
ATOM     34  C   UNL d   1      37.433  -9.039   3.197  0.00  0.00     0.126 C 
ENDBRANCH  31  32
ENDBRANCH  30  31
ENDBRANCH   8  30
TORSDOF 10
ENDMDL
MODEL 2
REMARK VINA RESULT:      -7.3      1.912      2.711
REMARK  10 active torsions:
REMARK  status: ('A' for Active; 'I' for Inactive)
REMARK    1  A    between atoms: O_4  and  C_21 
REMARK    2  A    between atoms: O_4  and  C_26 
REMARK    3  A    between atoms: O_5  and  C_22 
REMARK    4  A    between atoms: O_8  and  N_12 
REMARK    5  A    between atoms: CA_16  and  N_11 
REMARK       I    between atoms: N_11  and  C_23 
REMARK    6  A    between atoms: N_14  and  C_29 
REMARK    7  A    between atoms: CA_18  and  C_22 
REMARK    8  A    between atoms: C_19  and  C_21 
REMARK    9  A    between atoms: C_23  and  C_24 
REMARK   10  A    between atoms: C_24  and  C_25 
ROOT
ATOM      1  S   UNL d   1      37.720  -8.914  -2.428  0.00  0.00    -0.136 SA
ATOM      2  O   UNL d   1      41.775  -8.100  -2.837  0.00  0.00    -0.271 OA
ATOM      3  N   UNL d   1      39.690  -7.128  -2.449  0.00  0.00    -0.293 N 
ATOM      4  C   UNL d   1      38.574  -7.554  -3.285  0.00  0.00     0.187 C 
ATOM      5  CA  UNL d   1      39.652  -7.943  -4.357  0.00  0.00     0.211 C 
ATOM      6  C   UNL d   1      40.628  -7.836  -3.143  0.00  0.00     0.251 C 
ATOM      7  CA  UNL d   1      39.579  -6.820  -1.115  0.00  0.00     0.117 C 
ATOM      8  C   UNL d   1      38.449  -7.133  -0.414  0.00  0.00    -0.013 C 
ATOM      9  C   UNL d   1      37.265  -7.866  -1.014  0.00  0.00     0.115 C 
ENDROOT
BRANCH   5  10
ATOM     10  N   UNL d   1      39.396  -9.196  -5.128  0.00  0.00    -0.339 N 
ATOM     11  C   UNL d   1      39.508  -9.155  -6.527  0.00  0.00     0.275 C 
ATOM     12  O   UNL d   1      39.297 -10.149  -7.215  0.00  0.00    -0.266 OA
ATOM     13  H   UNL d   1      39.463 -10.112  -4.688  0.00  0.00     0.163 HD
BRANCH  11  14
ATOM     14  C   UNL d   1      39.843  -7.792  -7.166  0.00  0.00     0.180 C 
ATOM     15  N   UNL d   1      41.019  -7.227  -7.207  0.00  0.00    -0.126 NA
BRANCH  15  16
ATOM     16  O   UNL d   1      42.054  -7.924  -6.587  0.00  0.00    -0.261 OA
ATOM     17  C   UNL d   1      42.957  -8.338  -7.620  0.00  0.00     0.240 C 
ENDBRANCH  15  16
BRANCH  14  18
ATOM     18  C   UNL d   1      38.789  -6.969  -7.763  0.00  0.00     0.102 A 
ATOM     19  N   UNL d   1      38.851  -6.547  -9.086  0.00  0.00    -0.222 NA
ATOM     20  C   UNL d   1      37.726  -5.972  -9.425  0.00  0.00     0.164 A 
ATOM     21  S   UNL d   1      36.556  -5.821  -8.181  0.00  0.00    -0.062 SA
ATOM     22  C   UNL d   1      37.616  -6.622  -7.110  0.00  0.00     0.087 A 
BRANCH  20  23
ATOM     23  N   UNL d   1      37.477  -5.549 -10.668  0.00  0.00    -0.378 N 
ATOM     24  H   UNL d   1      38.006  -5.936 -11.439  0.00  0.00     0.158 HD
ATOM     25  H   UNL d   1      36.531  -5.262 -10.891  0.00  0.00     0.158 HD
ENDBRANCH  20  23
ENDBRANCH  14  18
ENDBRANCH  11  14
ENDBRANCH   5  10
BRANCH   7  26
ATOM     26  C   UNL d   1      40.677  -5.994  -0.475  0.00  0.00     0.194 C 
ATOM     27  OXT UNL d   1      40.591  -4.791  -0.271  0.00  0.00    -0.645 OA
BRANCH  26  28
ATOM     28  O   UNL d   1      41.836  -6.646  -0.274  0.00  0.00    -0.772 OA
ATOM     29  H   UNL d   1      41.938  -7.488  -0.769  0.00  0.00     0.167 HD
ENDBRANCH  26  28
ENDBRANCH   7  26
BRANCH   8  30
ATOM     30  C   UNL d   1      38.266  -6.853   1.068  0.00  0.00     0.216 C 
BRANCH  30  31
ATOM     31  O   UNL d   1      39.055  -7.771   1.844  0.00  0.00    -0.317 OA
BRANCH  31  32
ATOM     32  C   UNL d   1      38.640  -7.995   3.118  0.00  0.00     0.255 C 
ATOM     33  O   UNL d   1      39.267  -7.715   4.130  0.00  0.00    -0.266 OA
ATOM     34  C   UNL d   1      37.284  -8.630   3.108  0.00  0.00     0.126 C 
ENDBRANCH  31  32
ENDBRANCH  30  31
ENDBRANCH   8  30
TORSDOF 10
ENDMDL
MODEL 3
REMARK VINA RESULT:      -7.2      3.690      6.315
REMARK  10 active torsions:
REMARK  status: ('A' for Active; 'I' for Inactive)
REMARK    1  A    between atoms: O_4  and  C_21 
REMARK    2  A    between atoms: O_4  and  C_26 
REMARK    3  A    between atoms: O_5  and  C_22 
REMARK    4  A    between atoms: O_8  and  N_12 
REMARK    5  A    between atoms: CA_16  and  N_11 
REMARK       I    between atoms: N_11  and  C_23 
REMARK    6  A    between atoms: N_14  and  C_29 
REMARK    7  A    between atoms: CA_18  and  C_22 
REMARK    8  A    between atoms: C_19  and  C_21 
REMARK    9  A    between atoms: C_23  and  C_24 
REMARK   10  A    between atoms: C_24  and  C_25 
ROOT
ATOM      1  S   UNL d   1      38.151 -10.773  -3.816  0.00  0.00    -0.136 SA
ATOM      2  O   UNL d   1      39.929  -8.694  -0.686  0.00  0.00    -0.271 OA
ATOM      3  N   UNL d   1      38.829  -8.443  -2.728  0.00  0.00    -0.293 N 
ATOM      4  C   UNL d   1      39.232  -9.309  -3.829  0.00  0.00     0.187 C 
ATOM      5  CA  UNL d   1      40.616  -9.429  -3.100  0.00  0.00     0.211 C 
ATOM      6  C   UNL d   1      39.814  -8.867  -1.884  0.00  0.00     0.251 C 
ATOM      7  CA  UNL d   1      37.535  -8.045  -2.495  0.00  0.00     0.117 C 
ATOM      8  C   UNL d   1      36.490  -8.640  -3.144  0.00  0.00    -0.013 C 
ATOM      9  C   UNL d   1      36.653  -9.790  -4.119  0.00  0.00     0.115 C 
ENDROOT
BRANCH   5  10
ATOM     10  N   UNL d   1      41.268 -10.772  -3.135  0.00  0.00    -0.339 N 
ATOM     11  C   UNL d   1      42.652 -10.839  -3.358  0.00  0.00     0.275 C 
ATOM     12  O   UNL d   1      43.241 -11.914  -3.410  0.00  0.00    -0.266 OA
ATOM     13  H   UNL d   1      40.833 -11.584  -2.699  0.00  0.00     0.163 HD
BRANCH  11  14
ATOM     14  C   UNL d   1      43.390  -9.506  -3.600  0.00  0.00     0.180 C 
ATOM     15  N   UNL d   1      43.506  -8.884  -4.742  0.00  0.00    -0.126 NA
BRANCH  15  16
ATOM     16  O   UNL d   1      42.923  -9.510  -5.841  0.00  0.00    -0.261 OA
ATOM     17  C   UNL d   1      41.997  -8.577  -6.412  0.00  0.00     0.240 C 
ENDBRANCH  15  16
BRANCH  14  18
ATOM     18  C   UNL d   1      44.095  -8.835  -2.506  0.00  0.00     0.102 A 
ATOM     19  N   UNL d   1      43.659  -7.619  -1.992  0.00  0.00    -0.222 NA
ATOM     20  C   UNL d   1      44.350  -7.311  -0.925  0.00  0.00     0.164 A 
ATOM     21  S   UNL d   1      45.611  -8.395  -0.509  0.00  0.00    -0.062 SA
ATOM     22  C   UNL d   1      45.179  -9.380  -1.835  0.00  0.00     0.087 A 
BRANCH  20  23
ATOM     23  N   UNL d   1      44.085  -6.235  -0.178  0.00  0.00    -0.378 N 
ATOM     24  H   UNL d   1      44.277  -5.314  -0.549  0.00  0.00     0.158 HD
ATOM     25  H   UNL d   1      43.309  -6.289   0.472  0.00  0.00     0.158 HD
ENDBRANCH  20  23
ENDBRANCH  14  18
ENDBRANCH  11  14
ENDBRANCH   5  10
BRANCH   7  26
ATOM     26  C   UNL d   1      37.304  -6.832  -1.615  0.00  0.00     0.194 C 
ATOM     27  OXT UNL d   1      36.921  -6.898  -0.455  0.00  0.00    -0.645 OA
BRANCH  26  28
ATOM     28  O   UNL d   1      37.407  -5.647  -2.242  0.00  0.00    -0.772 OA
ATOM     29  H   UNL d   1      38.268  -5.187  -2.137  0.00  0.00     0.167 HD
ENDBRANCH  26  28
ENDBRANCH   7  26
BRANCH   8  30
ATOM     30  C   UNL d   1      35.033  -8.275  -2.916  0.00  0.00     0.216 C 
BRANCH  30  31
ATOM     31  O   UNL d   1      34.210  -8.882  -3.926  0.00  0.00    -0.317 OA
BRANCH  31  32
ATOM     32  C   UNL d   1      33.193  -8.123  -4.412  0.00  0.00     0.255 C 
ATOM     33  O   UNL d   1      32.876  -7.014  -4.006  0.00  0.00    -0.266 OA
ATOM     34  C   UNL d   1      32.515  -8.841  -5.538  0.00  0.00     0.126 C 
ENDBRANCH  31  32
ENDBRANCH  30  31
ENDBRANCH   8  30
TORSDOF 10
ENDMDL
MODEL 4
REMARK VINA RESULT:      -6.9      3.842      7.711
REMARK  10 active torsions:
REMARK  status: ('A' for Active; 'I' for Inactive)
REMARK    1  A    between atoms: O_4  and  C_21 
REMARK    2  A    between atoms: O_4  and  C_26 
REMARK    3  A    between atoms: O_5  and  C_22 
REMARK    4  A    between atoms: O_8  and  N_12 
REMARK    5  A    between atoms: CA_16  and  N_11 
REMARK       I    between atoms: N_11  and  C_23 
REMARK    6  A    between atoms: N_14  and  C_29 
REMARK    7  A    between atoms: CA_18  and  C_22 
REMARK    8  A    between atoms: C_19  and  C_21 
REMARK    9  A    between atoms: C_23  and  C_24 
REMARK   10  A    between atoms: C_24  and  C_25 
ROOT
ATOM      1  S   UNL d   1      39.299  -6.539  -0.670  0.00  0.00    -0.136 SA
ATOM      2  O   UNL d   1      41.442  -7.290  -4.152  0.00  0.00    -0.271 OA
ATOM      3  N   UNL d   1      40.069  -8.268  -2.538  0.00  0.00    -0.293 N 
ATOM      4  C   UNL d   1      40.337  -7.958  -1.139  0.00  0.00     0.187 C 
ATOM      5  CA  UNL d   1      41.809  -7.656  -1.588  0.00  0.00     0.211 C 
ATOM      6  C   UNL d   1      41.169  -7.612  -3.011  0.00  0.00     0.251 C 
ATOM      7  CA  UNL d   1      38.811  -8.439  -3.061  0.00  0.00     0.117 C 
ATOM      8  C   UNL d   1      37.700  -8.083  -2.350  0.00  0.00    -0.013 C 
ATOM      9  C   UNL d   1      37.753  -7.445  -0.975  0.00  0.00     0.115 C 
ENDROOT
BRANCH   5  10
ATOM     10  N   UNL d   1      42.479  -6.496  -0.926  0.00  0.00    -0.339 N 
ATOM     11  C   UNL d   1      43.809  -6.643  -0.503  0.00  0.00     0.275 C 
ATOM     12  O   UNL d   1      44.407  -5.730   0.057  0.00  0.00    -0.266 OA
ATOM     13  H   UNL d   1      42.140  -5.544  -1.056  0.00  0.00     0.163 HD
BRANCH  11  14
ATOM     14  C   UNL d   1      44.466  -8.022  -0.716  0.00  0.00     0.180 C 
ATOM     15  N   UNL d   1      44.716  -8.909   0.209  0.00  0.00    -0.126 NA
BRANCH  15  16
ATOM     16  O   UNL d   1      44.374  -8.548   1.510  0.00  0.00    -0.261 OA
ATOM     17  C   UNL d   1      45.367  -9.112   2.376  0.00  0.00     0.240 C 
ENDBRANCH  15  16
BRANCH  14  18
ATOM     18  C   UNL d   1      44.926  -8.433  -2.044  0.00  0.00     0.102 A 
ATOM     19  N   UNL d   1      45.749  -7.621  -2.816  0.00  0.00    -0.222 NA
ATOM     20  C   UNL d   1      46.152  -8.273  -3.877  0.00  0.00     0.164 A 
ATOM     21  S   UNL d   1      45.519  -9.854  -4.071  0.00  0.00    -0.062 SA
ATOM     22  C   UNL d   1      44.669  -9.676  -2.601  0.00  0.00     0.087 A 
BRANCH  20  23
ATOM     23  N   UNL d   1      47.024  -7.762  -4.751  0.00  0.00    -0.378 N 
ATOM     24  H   UNL d   1      46.924  -7.978  -5.735  0.00  0.00     0.158 HD
ATOM     25  H   UNL d   1      47.428  -6.856  -4.544  0.00  0.00     0.158 HD
ENDBRANCH  20  23
ENDBRANCH  14  18
ENDBRANCH  11  14
ENDBRANCH   5  10
BRANCH   7  26
ATOM     26  C   UNL d   1      38.677  -9.167  -4.384  0.00  0.00     0.194 C 
ATOM     27  OXT UNL d   1      38.705 -10.385  -4.495  0.00  0.00    -0.645 OA
BRANCH  26  28
ATOM     28  O   UNL d   1      38.672  -8.376  -5.471  0.00  0.00    -0.772 OA
ATOM     29  H   UNL d   1      39.495  -7.863  -5.624  0.00  0.00     0.167 HD
ENDBRANCH  26  28
ENDBRANCH   7  26
BRANCH   8  30
ATOM     30  C   UNL d   1      36.280  -8.212  -2.874  0.00  0.00     0.216 C 
BRANCH  30  31
ATOM     31  O   UNL d   1      36.019  -7.186  -3.846  0.00  0.00    -0.317 OA
BRANCH  31  32
ATOM     32  C   UNL d   1      35.299  -7.557  -4.937  0.00  0.00     0.255 C 
ATOM     33  O   UNL d   1      35.763  -7.861  -6.026  0.00  0.00    -0.266 OA
ATOM     34  C   UNL d   1      33.837  -7.553  -4.608  0.00  0.00     0.126 C 
ENDBRANCH  31  32
ENDBRANCH  30  31
ENDBRANCH   8  30
TORSDOF 10
ENDMDL
MODEL 5
REMARK VINA RESULT:      -6.9      3.186      4.763
REMARK  10 active torsions:
REMARK  status: ('A' for Active; 'I' for Inactive)
REMARK    1  A    between atoms: O_4  and  C_21 
REMARK    2  A    between atoms: O_4  and  C_26 
REMARK    3  A    between atoms: O_5  and  C_22 
REMARK    4  A    between atoms: O_8  and  N_12 
REMARK    5  A    between atoms: CA_16  and  N_11 
REMARK       I    between atoms: N_11  and  C_23 
REMARK    6  A    between atoms: N_14  and  C_29 
REMARK    7  A    between atoms: CA_18  and  C_22 
REMARK    8  A    between atoms: C_19  and  C_21 
REMARK    9  A    between atoms: C_23  and  C_24 
REMARK   10  A    between atoms: C_24  and  C_25 
ROOT
ATOM      1  S   UNL d   1      39.129  -8.634  -3.357  0.00  0.00    -0.136 SA
ATOM      2  O   UNL d   1      43.114  -9.599  -2.671  0.00  0.00    -0.271 OA
ATOM      3  N   UNL d   1      41.611  -7.823  -2.851  0.00  0.00    -0.293 N 
ATOM      4  C   UNL d   1      40.658  -7.848  -3.954  0.00  0.00     0.187 C 
ATOM      5  CA  UNL d   1      41.693  -8.761  -4.701  0.00  0.00     0.211 C 
ATOM      6  C   UNL d   1      42.297  -8.926  -3.271  0.00  0.00     0.251 C 
ATOM      7  CA  UNL d   1      41.323  -7.349  -1.595  0.00  0.00     0.117 C 
ATOM      8  C   UNL d   1      40.034  -7.092  -1.220  0.00  0.00    -0.013 C 
ATOM      9  C   UNL d   1      38.835  -7.340  -2.114  0.00  0.00     0.115 C 
ENDROOT
BRANCH   5  10
ATOM     10  N   UNL d   1      41.125  -9.878  -5.513  0.00  0.00    -0.339 N 
ATOM     11  C   UNL d   1      41.075  -9.734  -6.908  0.00  0.00     0.275 C 
ATOM     12  O   UNL d   1      40.609 -10.612  -7.627  0.00  0.00    -0.266 OA
ATOM     13  H   UNL d   1      41.076 -10.828  -5.147  0.00  0.00     0.163 HD
BRANCH  11  14
ATOM     14  C   UNL d   1      41.574  -8.397  -7.495  0.00  0.00     0.180 C 
ATOM     15  N   UNL d   1      40.857  -7.321  -7.683  0.00  0.00    -0.126 NA
BRANCH  15  16
ATOM     16  O   UNL d   1      39.511  -7.417  -7.339  0.00  0.00    -0.261 OA
ATOM     17  C   UNL d   1      38.757  -7.193  -8.537  0.00  0.00     0.240 C 
ENDBRANCH  15  16
BRANCH  14  18
ATOM     18  C   UNL d   1      42.957  -8.252  -7.953  0.00  0.00     0.102 A 
ATOM     19  N   UNL d   1      43.699  -7.107  -7.688  0.00  0.00    -0.222 NA
ATOM     20  C   UNL d   1      44.943  -7.286  -8.053  0.00  0.00     0.164 A 
ATOM     21  S   UNL d   1      45.296  -8.786  -8.804  0.00  0.00    -0.062 SA
ATOM     22  C   UNL d   1      43.668  -9.256  -8.593  0.00  0.00     0.087 A 
BRANCH  20  23
ATOM     23  N   UNL d   1      45.898  -6.378  -7.834  0.00  0.00    -0.378 N 
ATOM     24  H   UNL d   1      46.590  -6.549  -7.116  0.00  0.00     0.158 HD
ATOM     25  H   UNL d   1      46.217  -5.826  -8.622  0.00  0.00     0.158 HD
ENDBRANCH  20  23
ENDBRANCH  14  18
ENDBRANCH  11  14
ENDBRANCH   5  10
BRANCH   7  26
ATOM     26  C   UNL d   1      42.477  -6.977  -0.686  0.00  0.00     0.194 C 
ATOM     27  OXT UNL d   1      43.028  -7.766   0.070  0.00  0.00    -0.645 OA
BRANCH  26  28
ATOM     28  O   UNL d   1      42.773  -5.666  -0.649  0.00  0.00    -0.772 OA
ATOM     29  H   UNL d   1      42.746  -5.203  -1.515  0.00  0.00     0.167 HD
ENDBRANCH  26  28
ENDBRANCH   7  26
BRANCH   8  30
ATOM     30  C   UNL d   1      39.636  -6.597   0.160  0.00  0.00     0.216 C 
BRANCH  30  31
ATOM     31  O   UNL d   1      39.226  -7.703   0.981  0.00  0.00    -0.317 OA
BRANCH  31  32
ATOM     32  C   UNL d   1      38.050  -7.559   1.645  0.00  0.00     0.255 C 
ATOM     33  O   UNL d   1      37.241  -6.658   1.472  0.00  0.00    -0.266 OA
ATOM     34  C   UNL d   1      37.875  -8.680   2.622  0.00  0.00     0.126 C 
ENDBRANCH  31  32
ENDBRANCH  30  31
ENDBRANCH   8  30
TORSDOF 10
ENDMDL
MODEL 6
REMARK VINA RESULT:      -6.8      3.127      7.999
REMARK  10 active torsions:
REMARK  status: ('A' for Active; 'I' for Inactive)
REMARK    1  A    between atoms: O_4  and  C_21 
REMARK    2  A    between atoms: O_4  and  C_26 
REMARK    3  A    between atoms: O_5  and  C_22 
REMARK    4  A    between atoms: O_8  and  N_12 
REMARK    5  A    between atoms: CA_16  and  N_11 
REMARK       I    between atoms: N_11  and  C_23 
REMARK    6  A    between atoms: N_14  and  C_29 
REMARK    7  A    between atoms: CA_18  and  C_22 
REMARK    8  A    between atoms: C_19  and  C_21 
REMARK    9  A    between atoms: C_23  and  C_24 
REMARK   10  A    between atoms: C_24  and  C_25 
ROOT
ATOM      1  S   UNL d   1      40.058  -8.946  -6.762  0.00  0.00    -0.136 SA
ATOM      2  O   UNL d   1      36.334  -8.694  -4.931  0.00  0.00    -0.271 OA
ATOM      3  N   UNL d   1      38.048  -7.436  -5.894  0.00  0.00    -0.293 N 
ATOM      4  C   UNL d   1      39.420  -7.766  -5.531  0.00  0.00     0.187 C 
ATOM      5  CA  UNL d   1      38.825  -8.360  -4.206  0.00  0.00     0.211 C 
ATOM      6  C   UNL d   1      37.483  -8.304  -5.003  0.00  0.00     0.251 C 
ATOM      7  CA  UNL d   1      37.659  -7.033  -7.148  0.00  0.00     0.117 C 
ATOM      8  C   UNL d   1      38.502  -7.151  -8.216  0.00  0.00    -0.013 C 
ATOM      9  C   UNL d   1      39.887  -7.761  -8.129  0.00  0.00     0.115 C 
ENDROOT
BRANCH   5  10
ATOM     10  N   UNL d   1      39.456  -9.615  -3.700  0.00  0.00    -0.339 N 
ATOM     11  C   UNL d   1      40.209  -9.557  -2.517  0.00  0.00     0.275 C 
ATOM     12  O   UNL d   1      40.761 -10.552  -2.059  0.00  0.00    -0.266 OA
ATOM     13  H   UNL d   1      39.111 -10.532  -3.981  0.00  0.00     0.163 HD
BRANCH  11  14
ATOM     14  C   UNL d   1      40.365  -8.174  -1.851  0.00  0.00     0.180 C 
ATOM     15  N   UNL d   1      41.311  -7.306  -2.088  0.00  0.00    -0.126 NA
BRANCH  15  16
ATOM     16  O   UNL d   1      42.277  -7.692  -3.014  0.00  0.00    -0.261 OA
ATOM     17  C   UNL d   1      43.450  -8.049  -2.271  0.00  0.00     0.240 C 
ENDBRANCH  15  16
BRANCH  14  18
ATOM     18  C   UNL d   1      39.433  -7.738  -0.810  0.00  0.00     0.102 A 
ATOM     19  N   UNL d   1      39.525  -8.205   0.497  0.00  0.00    -0.222 NA
ATOM     20  C   UNL d   1      38.694  -7.549   1.265  0.00  0.00     0.164 A 
ATOM     21  S   UNL d   1      37.696  -6.397   0.481  0.00  0.00    -0.062 SA
ATOM     22  C   UNL d   1      38.458  -6.771  -1.001  0.00  0.00     0.087 A 
BRANCH  20  23
ATOM     23  N   UNL d   1      38.634  -7.733   2.588  0.00  0.00    -0.378 N 
ATOM     24  H   UNL d   1      39.202  -7.155   3.194  0.00  0.00     0.158 HD
ATOM     25  H   UNL d   1      37.757  -8.048   2.984  0.00  0.00     0.158 HD
ENDBRANCH  20  23
ENDBRANCH  14  18
ENDBRANCH  11  14
ENDBRANCH   5  10
BRANCH   7  26
ATOM     26  C   UNL d   1      36.330  -6.317  -7.292  0.00  0.00     0.194 C 
ATOM     27  OXT UNL d   1      35.285  -6.878  -7.591  0.00  0.00    -0.645 OA
BRANCH  26  28
ATOM     28  O   UNL d   1      36.395  -4.977  -7.213  0.00  0.00    -0.772 OA
ATOM     29  H   UNL d   1      37.258  -4.580  -7.461  0.00  0.00     0.167 HD
ENDBRANCH  26  28
ENDBRANCH   7  26
BRANCH   8  30
ATOM     30  C   UNL d   1      38.132  -6.756  -9.636  0.00  0.00     0.216 C 
BRANCH  30  31
ATOM     31  O   UNL d   1      38.272  -5.335  -9.804  0.00  0.00    -0.317 OA
BRANCH  31  32
ATOM     32  C   UNL d   1      38.462  -4.894 -11.074  0.00  0.00     0.255 C 
ATOM     33  O   UNL d   1      39.055  -3.872 -11.392  0.00  0.00    -0.266 OA
ATOM     34  C   UNL d   1      37.846  -5.854 -12.045  0.00  0.00     0.126 C 
ENDBRANCH  31  32
ENDBRANCH  30  31
ENDBRANCH   8  30
TORSDOF 10
ENDMDL
MODEL 7
REMARK VINA RESULT:      -6.7      2.850      8.240
REMARK  10 active torsions:
REMARK  status: ('A' for Active; 'I' for Inactive)
REMARK    1  A    between atoms: O_4  and  C_21 
REMARK    2  A    between atoms: O_4  and  C_26 
REMARK    3  A    between atoms: O_5  and  C_22 
REMARK    4  A    between atoms: O_8  and  N_12 
REMARK    5  A    between atoms: CA_16  and  N_11 
REMARK       I    between atoms: N_11  and  C_23 
REMARK    6  A    between atoms: N_14  and  C_29 
REMARK    7  A    between atoms: CA_18  and  C_22 
REMARK    8  A    between atoms: C_19  and  C_21 
REMARK    9  A    between atoms: C_23  and  C_24 
REMARK   10  A    between atoms: C_24  and  C_25 
ROOT
ATOM      1  S   UNL d   1      39.295  -9.552  -5.538  0.00  0.00    -0.136 SA
ATOM      2  O   UNL d   1      35.596  -8.084  -4.337  0.00  0.00    -0.271 OA
ATOM      3  N   UNL d   1      37.647  -7.482  -5.274  0.00  0.00    -0.293 N 
ATOM      4  C   UNL d   1      38.857  -8.017  -4.663  0.00  0.00     0.187 C 
ATOM      5  CA  UNL d   1      38.016  -8.155  -3.346  0.00  0.00     0.211 C 
ATOM      6  C   UNL d   1      36.808  -7.983  -4.320  0.00  0.00     0.251 C 
ATOM      7  CA  UNL d   1      37.485  -7.292  -6.624  0.00  0.00     0.117 C 
ATOM      8  C   UNL d   1      38.367  -7.828  -7.519  0.00  0.00    -0.013 C 
ATOM      9  C   UNL d   1      39.546  -8.693  -7.119  0.00  0.00     0.115 C 
ENDROOT
BRANCH   5  10
ATOM     10  N   UNL d   1      38.271  -9.373  -2.521  0.00  0.00    -0.339 N 
ATOM     11  C   UNL d   1      39.096  -9.258  -1.391  0.00  0.00     0.275 C 
ATOM     12  O   UNL d   1      39.351 -10.226  -0.683  0.00  0.00    -0.266 OA
ATOM     13  H   UNL d   1      37.640 -10.174  -2.550  0.00  0.00     0.163 HD
BRANCH  11  14
ATOM     14  C   UNL d   1      39.720  -7.874  -1.116  0.00  0.00     0.180 C 
ATOM     15  N   UNL d   1      39.084  -6.807  -0.713  0.00  0.00    -0.126 NA
BRANCH  15  16
ATOM     16  O   UNL d   1      37.708  -6.942  -0.545  0.00  0.00    -0.261 OA
ATOM     17  C   UNL d   1      37.331  -6.078   0.534  0.00  0.00     0.240 C 
ENDBRANCH  15  16
BRANCH  14  18
ATOM     18  C   UNL d   1      41.146  -7.639  -1.350  0.00  0.00     0.102 A 
ATOM     19  N   UNL d   1      41.896  -6.810  -0.523  0.00  0.00    -0.222 NA
ATOM     20  C   UNL d   1      43.163  -6.893  -0.838  0.00  0.00     0.164 A 
ATOM     21  S   UNL d   1      43.539  -7.891  -2.181  0.00  0.00    -0.062 SA
ATOM     22  C   UNL d   1      41.883  -8.278  -2.335  0.00  0.00     0.087 A 
BRANCH  20  23
ATOM     23  N   UNL d   1      44.122  -6.268  -0.148  0.00  0.00    -0.378 N 
ATOM     24  H   UNL d   1      44.027  -6.172   0.855  0.00  0.00     0.158 HD
ATOM     25  H   UNL d   1      45.073  -6.334  -0.491  0.00  0.00     0.158 HD
ENDBRANCH  20  23
ENDBRANCH  14  18
ENDBRANCH  11  14
ENDBRANCH   5  10
BRANCH   7  26
ATOM     26  C   UNL d   1      36.392  -6.351  -7.091  0.00  0.00     0.194 C 
ATOM     27  OXT UNL d   1      35.279  -6.722  -7.439  0.00  0.00    -0.645 OA
BRANCH  26  28
ATOM     28  O   UNL d   1      36.770  -5.070  -7.243  0.00  0.00    -0.772 OA
ATOM     29  H   UNL d   1      36.687  -4.711  -8.153  0.00  0.00     0.167 HD
ENDBRANCH  26  28
ENDBRANCH   7  26
BRANCH   8  30
ATOM     30  C   UNL d   1      38.237  -7.687  -9.026  0.00  0.00     0.216 C 
BRANCH  30  31
ATOM     31  O   UNL d   1      38.826  -6.449  -9.457  0.00  0.00    -0.317 OA
BRANCH  31  32
ATOM     32  C   UNL d   1      38.130  -5.740 -10.384  0.00  0.00     0.255 C 
ATOM     33  O   UNL d   1      38.482  -4.680 -10.881  0.00  0.00    -0.266 OA
ATOM     34  C   UNL d   1      36.858  -6.455 -10.722  0.00  0.00     0.126 C 
ENDBRANCH  31  32
ENDBRANCH  30  31
ENDBRANCH   8  30
TORSDOF 10
ENDMDL
MODEL 8
REMARK VINA RESULT:      -6.6      3.475      5.287
REMARK  10 active torsions:
REMARK  status: ('A' for Active; 'I' for Inactive)
REMARK    1  A    between atoms: O_4  and  C_21 
REMARK    2  A    between atoms: O_4  and  C_26 
REMARK    3  A    between atoms: O_5  and  C_22 
REMARK    4  A    between atoms: O_8  and  N_12 
REMARK    5  A    between atoms: CA_16  and  N_11 
REMARK       I    between atoms: N_11  and  C_23 
REMARK    6  A    between atoms: N_14  and  C_29 
REMARK    7  A    between atoms: CA_18  and  C_22 
REMARK    8  A    between atoms: C_19  and  C_21 
REMARK    9  A    between atoms: C_23  and  C_24 
REMARK   10  A    between atoms: C_24  and  C_25 
ROOT
ATOM      1  S   UNL d   1      40.197  -7.096  -5.563  0.00  0.00    -0.136 SA
ATOM      2  O   UNL d   1      36.720  -5.660  -7.330  0.00  0.00    -0.271 OA
ATOM      3  N   UNL d   1      37.568  -7.300  -5.903  0.00  0.00    -0.293 N 
ATOM      4  C   UNL d   1      38.791  -7.984  -6.303  0.00  0.00     0.187 C 
ATOM      5  CA  UNL d   1      38.401  -7.613  -7.777  0.00  0.00     0.211 C 
ATOM      6  C   UNL d   1      37.438  -6.607  -7.072  0.00  0.00     0.251 C 
ATOM      7  CA  UNL d   1      37.259  -6.969  -4.606  0.00  0.00     0.117 C 
ATOM      8  C   UNL d   1      38.202  -7.041  -3.620  0.00  0.00    -0.013 C 
ATOM      9  C   UNL d   1      39.645  -7.438  -3.866  0.00  0.00     0.115 C 
ENDROOT
BRANCH   5  10
ATOM     10  N   UNL d   1      39.524  -7.219  -8.679  0.00  0.00    -0.339 N 
ATOM     11  C   UNL d   1      39.504  -7.669 -10.009  0.00  0.00     0.275 C 
ATOM     12  O   UNL d   1      40.405  -7.388 -10.793  0.00  0.00    -0.266 OA
ATOM     13  H   UNL d   1      40.106  -6.407  -8.477  0.00  0.00     0.163 HD
BRANCH  11  14
ATOM     14  C   UNL d   1      38.335  -8.586 -10.423  0.00  0.00     0.180 C 
ATOM     15  N   UNL d   1      38.278  -9.882 -10.268  0.00  0.00    -0.126 NA
BRANCH  15  16
ATOM     16  O   UNL d   1      39.399 -10.479  -9.697  0.00  0.00    -0.261 OA
ATOM     17  C   UNL d   1      39.994 -11.305 -10.706  0.00  0.00     0.240 C 
ENDBRANCH  15  16
BRANCH  14  18
ATOM     18  C   UNL d   1      37.161  -8.037 -11.103  0.00  0.00     0.102 A 
ATOM     19  N   UNL d   1      36.060  -8.827 -11.416  0.00  0.00    -0.222 NA
ATOM     20  C   UNL d   1      35.086  -8.079 -11.865  0.00  0.00     0.164 A 
ATOM     21  S   UNL d   1      35.435  -6.408 -12.024  0.00  0.00    -0.062 SA
ATOM     22  C   UNL d   1      37.001  -6.694 -11.406  0.00  0.00     0.087 A 
BRANCH  20  23
ATOM     23  N   UNL d   1      33.877  -8.566 -12.161  0.00  0.00    -0.378 N 
ATOM     24  H   UNL d   1      33.305  -8.090 -12.845  0.00  0.00     0.158 HD
ATOM     25  H   UNL d   1      33.744  -9.569 -12.104  0.00  0.00     0.158 HD
ENDBRANCH  20  23
ENDBRANCH  14  18
ENDBRANCH  11  14
ENDBRANCH   5  10
BRANCH   7  26
ATOM     26  C   UNL d   1      35.813  -6.666  -4.267  0.00  0.00     0.194 C 
ATOM     27  OXT UNL d   1      34.978  -7.526  -4.021  0.00  0.00    -0.645 OA
BRANCH  26  28
ATOM     28  O   UNL d   1      35.456  -5.377  -4.398  0.00  0.00    -0.772 OA
ATOM     29  H   UNL d   1      35.210  -5.097  -5.307  0.00  0.00     0.167 HD
ENDBRANCH  26  28
ENDBRANCH   7  26
BRANCH   8  30
ATOM     30  C   UNL d   1      37.944  -6.663  -2.171  0.00  0.00     0.216 C 
BRANCH  30  31
ATOM     31  O   UNL d   1      39.131  -6.096  -1.591  0.00  0.00    -0.317 OA
BRANCH  31  32
ATOM     32  C   UNL d   1      39.308  -6.300  -0.260  0.00  0.00     0.255 C 
ATOM     33  O   UNL d   1      39.481  -5.426   0.577  0.00  0.00    -0.266 OA
ATOM     34  C   UNL d   1      39.251  -7.766   0.043  0.00  0.00     0.126 C 
ENDBRANCH  31  32
ENDBRANCH  30  31
ENDBRANCH   8  30
TORSDOF 10
ENDMDL
MODEL 9
REMARK VINA RESULT:      -6.4      3.596      8.748
REMARK  10 active torsions:
REMARK  status: ('A' for Active; 'I' for Inactive)
REMARK    1  A    between atoms: O_4  and  C_21 
REMARK    2  A    between atoms: O_4  and  C_26 
REMARK    3  A    between atoms: O_5  and  C_22 
REMARK    4  A    between atoms: O_8  and  N_12 
REMARK    5  A    between atoms: CA_16  and  N_11 
REMARK       I    between atoms: N_11  and  C_23 
REMARK    6  A    between atoms: N_14  and  C_29 
REMARK    7  A    between atoms: CA_18  and  C_22 
REMARK    8  A    between atoms: C_19  and  C_21 
REMARK    9  A    between atoms: C_23  and  C_24 
REMARK   10  A    between atoms: C_24  and  C_25 
ROOT
ATOM      1  S   UNL d   1      39.577  -9.351  -7.877  0.00  0.00    -0.136 SA
ATOM      2  O   UNL d   1      35.976  -7.559  -6.826  0.00  0.00    -0.271 OA
ATOM      3  N   UNL d   1      38.159  -7.128  -7.527  0.00  0.00    -0.293 N 
ATOM      4  C   UNL d   1      39.239  -7.864  -6.882  0.00  0.00     0.187 C 
ATOM      5  CA  UNL d   1      38.270  -8.023  -5.658  0.00  0.00     0.211 C 
ATOM      6  C   UNL d   1      37.185  -7.610  -6.702  0.00  0.00     0.251 C 
ATOM      7  CA  UNL d   1      38.145  -6.791  -8.858  0.00  0.00     0.117 C 
ATOM      8  C   UNL d   1      39.038  -7.343  -9.732  0.00  0.00    -0.013 C 
ATOM      9  C   UNL d   1      40.069  -8.382  -9.334  0.00  0.00     0.115 C 
ENDROOT
BRANCH   5  10
ATOM     10  N   UNL d   1      38.307  -9.337  -4.950  0.00  0.00    -0.339 N 
ATOM     11  C   UNL d   1      38.105  -9.355  -3.561  0.00  0.00     0.275 C 
ATOM     12  O   UNL d   1      38.137 -10.402  -2.923  0.00  0.00    -0.266 OA
ATOM     13  H   UNL d   1      38.152 -10.212  -5.449  0.00  0.00     0.163 HD
BRANCH  11  14
ATOM     14  C   UNL d   1      37.907  -7.994  -2.862  0.00  0.00     0.180 C 
ATOM     15  N   UNL d   1      36.817  -7.276  -2.865  0.00  0.00    -0.126 NA
BRANCH  15  16
ATOM     16  O   UNL d   1      35.748  -7.791  -3.595  0.00  0.00    -0.261 OA
ATOM     17  C   UNL d   1      34.931  -8.528  -2.678  0.00  0.00     0.240 C 
ENDBRANCH  15  16
BRANCH  14  18
ATOM     18  C   UNL d   1      39.013  -7.356  -2.145  0.00  0.00     0.102 A 
ATOM     19  N   UNL d   1      38.798  -6.330  -1.232  0.00  0.00    -0.222 NA
ATOM     20  C   UNL d   1      39.913  -6.044  -0.610  0.00  0.00     0.164 A 
ATOM     21  S   UNL d   1      41.301  -6.910  -1.122  0.00  0.00    -0.062 SA
ATOM     22  C   UNL d   1      40.334  -7.768  -2.237  0.00  0.00     0.087 A 
BRANCH  20  23
ATOM     23  N   UNL d   1      39.977  -5.154   0.385  0.00  0.00    -0.378 N 
ATOM     24  H   UNL d   1      39.188  -5.052   1.010  0.00  0.00     0.158 HD
ATOM     25  H   UNL d   1      40.884  -4.965   0.794  0.00  0.00     0.158 HD
ENDBRANCH  20  23
ENDBRANCH  14  18
ENDBRANCH  11  14
ENDBRANCH   5  10
BRANCH   7  26
ATOM     26  C   UNL d   1      37.214  -5.682  -9.308  0.00  0.00     0.194 C 
ATOM     27  OXT UNL d   1      37.573  -4.527  -9.494  0.00  0.00    -0.645 OA
BRANCH  26  28
ATOM     28  O   UNL d   1      35.913  -6.015  -9.351  0.00  0.00    -0.772 OA
ATOM     29  H   UNL d   1      35.723  -6.949  -9.587  0.00  0.00     0.167 HD
ENDBRANCH  26  28
ENDBRANCH   7  26
BRANCH   8  30
ATOM     30  C   UNL d   1      39.064  -7.043 -11.221  0.00  0.00     0.216 C 
BRANCH  30  31
ATOM     31  O   UNL d   1      39.891  -5.896 -11.478  0.00  0.00    -0.317 OA
BRANCH  31  32
ATOM     32  C   UNL d   1      39.420  -5.005 -12.390  0.00  0.00     0.255 C 
ATOM     33  O   UNL d   1      40.020  -4.023 -12.802  0.00  0.00    -0.266 OA
ATOM     34  C   UNL d   1      38.046  -5.407 -12.832  0.00  0.00     0.126 C 
ENDBRANCH  31  32
ENDBRANCH  30  31
ENDBRANCH   8  30
TORSDOF 10
ENDMDL
