MODEL 1
REMARK VINA RESULT:      -6.1      0.000      0.000
REMARK  3 active torsions:
REMARK  status: ('A' for Active; 'I' for Inactive)
REMARK    1  A    between atoms: C_1  and  O_3 
REMARK    2  A    between atoms: C_1  and  C_4 
REMARK    3  A    between atoms: C_5  and  O_10 
ROOT
ATOM      1  C   UNL d   1       6.964 -10.621 -26.203  0.00  0.00     0.070 A 
ATOM      2  C   UNL d   1       6.198 -11.615 -25.581  0.00  0.00     0.082 A 
ATOM      3  C   UNL d   1       6.526 -12.064 -24.301  0.00  0.00     0.037 A 
ATOM      4  C   UNL d   1       7.625 -11.525 -23.632  0.00  0.00     0.003 A 
ATOM      5  C   UNL d   1       8.398 -10.539 -24.243  0.00  0.00     0.001 A 
ATOM      6  C   UNL d   1       8.069 -10.087 -25.523  0.00  0.00     0.021 A 
ENDROOT
BRANCH   1   7
ATOM      7  C   UNL d   1       6.677 -10.082 -27.556  0.00  0.00     0.178 C 
ATOM      8  O   UNL d   1       5.628 -10.189 -28.164  0.00  0.00    -0.646 OA
BRANCH   7   9
ATOM      9  O   UNL d   1       7.727  -9.432 -28.099  0.00  0.00    -0.773 OA
ATOM     10  H   UNL d   1       8.116 -10.110 -28.699  0.00  0.00     0.167 HD
ENDBRANCH   7   9
ENDBRANCH   1   7
BRANCH   2  11
ATOM     11  O   UNL d   1       5.106 -12.208 -26.157  0.00  0.00    -0.360 OA
ATOM     12  H   UNL d   1       5.138 -12.010 -27.117  0.00  0.00     0.217 HD
ENDBRANCH   2  11
TORSDOF 3
ENDMDL
MODEL 2
REMARK VINA RESULT:      -6.0      1.264      2.293
REMARK  3 active torsions:
REMARK  status: ('A' for Active; 'I' for Inactive)
REMARK    1  A    between atoms: C_1  and  O_3 
REMARK    2  A    between atoms: C_1  and  C_4 
REMARK    3  A    between atoms: C_5  and  O_10 
ROOT
ATOM      1  C   UNL d   1       7.012 -11.484 -26.409  0.00  0.00     0.070 A 
ATOM      2  C   UNL d   1       7.993 -10.771 -25.707  0.00  0.00     0.082 A 
ATOM      3  C   UNL d   1       8.100 -10.893 -24.321  0.00  0.00     0.037 A 
ATOM      4  C   UNL d   1       7.226 -11.725 -23.622  0.00  0.00     0.003 A 
ATOM      5  C   UNL d   1       6.242 -12.436 -24.309  0.00  0.00     0.001 A 
ATOM      6  C   UNL d   1       6.135 -12.318 -25.697  0.00  0.00     0.021 A 
ENDROOT
BRANCH   1   7
ATOM      7  C   UNL d   1       6.838 -11.419 -27.880  0.00  0.00     0.178 C 
ATOM      8  O   UNL d   1       5.799 -11.587 -28.490  0.00  0.00    -0.646 OA
BRANCH   7   9
ATOM      9  O   UNL d   1       7.987 -11.150 -28.536  0.00  0.00    -0.773 OA
ATOM     10  H   UNL d   1       7.718 -10.440 -29.163  0.00  0.00     0.167 HD
ENDBRANCH   7   9
ENDBRANCH   1   7
BRANCH   2  11
ATOM     11  O   UNL d   1       8.892  -9.926 -26.301  0.00  0.00    -0.360 OA
ATOM     12  H   UNL d   1       8.379  -9.221 -26.750  0.00  0.00     0.217 HD
ENDBRANCH   2  11
TORSDOF 3
ENDMDL
MODEL 3
REMARK VINA RESULT:      -6.0      2.744      4.154
REMARK  3 active torsions:
REMARK  status: ('A' for Active; 'I' for Inactive)
REMARK    1  A    between atoms: C_1  and  O_3 
REMARK    2  A    between atoms: C_1  and  C_4 
REMARK    3  A    between atoms: C_5  and  O_10 
ROOT
ATOM      1  C   UNL d   1       7.420  -9.697 -24.620  0.00  0.00     0.070 A 
ATOM      2  C   UNL d   1       8.016  -9.958 -25.861  0.00  0.00     0.082 A 
ATOM      3  C   UNL d   1       7.487  -9.408 -27.029  0.00  0.00     0.037 A 
ATOM      4  C   UNL d   1       6.356  -8.593 -26.968  0.00  0.00     0.003 A 
ATOM      5  C   UNL d   1       5.752  -8.330 -25.740  0.00  0.00     0.001 A 
ATOM      6  C   UNL d   1       6.281  -8.878 -24.569  0.00  0.00     0.021 A 
ENDROOT
BRANCH   1   7
ATOM      7  C   UNL d   1       7.925 -10.233 -23.332  0.00  0.00     0.178 C 
ATOM      8  O   UNL d   1       8.295  -9.578 -22.376  0.00  0.00    -0.646 OA
BRANCH   7   9
ATOM      9  O   UNL d   1       7.953 -11.583 -23.297  0.00  0.00    -0.773 OA
ATOM     10  H   UNL d   1       7.222 -11.831 -23.908  0.00  0.00     0.167 HD
ENDBRANCH   7   9
ENDBRANCH   1   7
BRANCH   2  11
ATOM     11  O   UNL d   1       9.122 -10.748 -26.023  0.00  0.00    -0.360 OA
ATOM     12  H   UNL d   1       9.823 -10.191 -26.424  0.00  0.00     0.217 HD
ENDBRANCH   2  11
TORSDOF 3
ENDMDL
MODEL 4
REMARK VINA RESULT:      -5.9      1.444      3.045
REMARK  3 active torsions:
REMARK  status: ('A' for Active; 'I' for Inactive)
REMARK    1  A    between atoms: C_1  and  O_3 
REMARK    2  A    between atoms: C_1  and  C_4 
REMARK    3  A    between atoms: C_5  and  O_10 
ROOT
ATOM      1  C   UNL d   1       7.093 -10.968 -24.889  0.00  0.00     0.070 A 
ATOM      2  C   UNL d   1       8.013 -10.473 -25.822  0.00  0.00     0.082 A 
ATOM      3  C   UNL d   1       9.008  -9.578 -25.428  0.00  0.00     0.037 A 
ATOM      4  C   UNL d   1       9.090  -9.165 -24.099  0.00  0.00     0.003 A 
ATOM      5  C   UNL d   1       8.177  -9.646 -23.161  0.00  0.00     0.001 A 
ATOM      6  C   UNL d   1       7.182 -10.545 -23.554  0.00  0.00     0.021 A 
ENDROOT
BRANCH   1   7
ATOM      7  C   UNL d   1       6.014 -11.929 -25.223  0.00  0.00     0.178 C 
ATOM      8  O   UNL d   1       5.394 -11.980 -26.269  0.00  0.00    -0.646 OA
BRANCH   7   9
ATOM      9  O   UNL d   1       5.747 -12.793 -24.221  0.00  0.00    -0.773 OA
ATOM     10  H   UNL d   1       4.766 -12.755 -24.156  0.00  0.00     0.167 HD
ENDBRANCH   7   9
ENDBRANCH   1   7
BRANCH   2  11
ATOM     11  O   UNL d   1       8.011 -10.814 -27.148  0.00  0.00    -0.360 OA
ATOM     12  H   UNL d   1       8.527 -10.131 -27.627  0.00  0.00     0.217 HD
ENDBRANCH   2  11
TORSDOF 3
ENDMDL
MODEL 5
REMARK VINA RESULT:      -5.9      1.899      3.479
REMARK  3 active torsions:
REMARK  status: ('A' for Active; 'I' for Inactive)
REMARK    1  A    between atoms: C_1  and  O_3 
REMARK    2  A    between atoms: C_1  and  C_4 
REMARK    3  A    between atoms: C_5  and  O_10 
ROOT
ATOM      1  C   UNL d   1       6.205 -10.771 -25.182  0.00  0.00     0.070 A 
ATOM      2  C   UNL d   1       5.832 -10.883 -26.527  0.00  0.00     0.082 A 
ATOM      3  C   UNL d   1       5.690  -9.744 -27.320  0.00  0.00     0.037 A 
ATOM      4  C   UNL d   1       5.917  -8.480 -26.775  0.00  0.00     0.003 A 
ATOM      5  C   UNL d   1       6.284  -8.354 -25.435  0.00  0.00     0.001 A 
ATOM      6  C   UNL d   1       6.429  -9.495 -24.641  0.00  0.00     0.021 A 
ENDROOT
BRANCH   1   7
ATOM      7  C   UNL d   1       6.388 -11.931 -24.275  0.00  0.00     0.178 C 
ATOM      8  O   UNL d   1       5.762 -12.974 -24.308  0.00  0.00    -0.646 OA
BRANCH   7   9
ATOM      9  O   UNL d   1       7.351 -11.732 -23.351  0.00  0.00    -0.773 OA
ATOM     10  H   UNL d   1       6.976 -12.164 -22.550  0.00  0.00     0.167 HD
ENDBRANCH   7   9
ENDBRANCH   1   7
BRANCH   2  11
ATOM     11  O   UNL d   1       5.582 -12.076 -27.151  0.00  0.00    -0.360 OA
ATOM     12  H   UNL d   1       4.869 -11.921 -27.806  0.00  0.00     0.217 HD
ENDBRANCH   2  11
TORSDOF 3
ENDMDL
MODEL 6
REMARK VINA RESULT:      -5.9      0.862      2.622
REMARK  3 active torsions:
REMARK  status: ('A' for Active; 'I' for Inactive)
REMARK    1  A    between atoms: C_1  and  O_3 
REMARK    2  A    between atoms: C_1  and  C_4 
REMARK    3  A    between atoms: C_5  and  O_10 
ROOT
ATOM      1  C   UNL d   1       6.899 -10.576 -26.022  0.00  0.00     0.070 A 
ATOM      2  C   UNL d   1       7.866  -9.612 -26.340  0.00  0.00     0.082 A 
ATOM      3  C   UNL d   1       8.841  -9.255 -25.409  0.00  0.00     0.037 A 
ATOM      4  C   UNL d   1       8.857  -9.853 -24.149  0.00  0.00     0.003 A 
ATOM      5  C   UNL d   1       7.898 -10.809 -23.818  0.00  0.00     0.001 A 
ATOM      6  C   UNL d   1       6.922 -11.171 -24.751  0.00  0.00     0.021 A 
ENDROOT
BRANCH   1   7
ATOM      7  C   UNL d   1       5.837 -11.019 -26.957  0.00  0.00     0.178 C 
ATOM      8  O   UNL d   1       5.556 -10.504 -28.023  0.00  0.00    -0.646 OA
BRANCH   7   9
ATOM      9  O   UNL d   1       5.158 -12.098 -26.512  0.00  0.00    -0.773 OA
ATOM     10  H   UNL d   1       5.777 -12.839 -26.705  0.00  0.00     0.167 HD
ENDBRANCH   7   9
ENDBRANCH   1   7
BRANCH   2  11
ATOM     11  O   UNL d   1       7.929  -8.966 -27.545  0.00  0.00    -0.360 OA
ATOM     12  H   UNL d   1       7.738  -9.628 -28.243  0.00  0.00     0.217 HD
ENDBRANCH   2  11
TORSDOF 3
ENDMDL
MODEL 7
REMARK VINA RESULT:      -5.8      1.956      3.653
REMARK  3 active torsions:
REMARK  status: ('A' for Active; 'I' for Inactive)
REMARK    1  A    between atoms: C_1  and  O_3 
REMARK    2  A    between atoms: C_1  and  C_4 
REMARK    3  A    between atoms: C_5  and  O_10 
ROOT
ATOM      1  C   UNL d   1       6.310 -10.824 -25.044  0.00  0.00     0.070 A 
ATOM      2  C   UNL d   1       5.970 -11.108 -26.373  0.00  0.00     0.082 A 
ATOM      3  C   UNL d   1       5.651 -10.077 -27.258  0.00  0.00     0.037 A 
ATOM      4  C   UNL d   1       5.666  -8.752 -26.821  0.00  0.00     0.003 A 
ATOM      5  C   UNL d   1       5.997  -8.457 -25.500  0.00  0.00     0.001 A 
ATOM      6  C   UNL d   1       6.320  -9.488 -24.614  0.00  0.00     0.021 A 
ENDROOT
BRANCH   1   7
ATOM      7  C   UNL d   1       6.672 -11.859 -24.045  0.00  0.00     0.178 C 
ATOM      8  O   UNL d   1       7.676 -11.876 -23.358  0.00  0.00    -0.646 OA
BRANCH   7   9
ATOM      9  O   UNL d   1       5.754 -12.845 -23.951  0.00  0.00    -0.773 OA
ATOM     10  H   UNL d   1       6.007 -13.297 -23.114  0.00  0.00     0.167 HD
ENDBRANCH   7   9
ENDBRANCH   1   7
BRANCH   2  11
ATOM     11  O   UNL d   1       5.922 -12.373 -26.894  0.00  0.00    -0.360 OA
ATOM     12  H   UNL d   1       6.633 -12.894 -26.463  0.00  0.00     0.217 HD
ENDBRANCH   2  11
TORSDOF 3
ENDMDL
MODEL 8
REMARK VINA RESULT:      -5.8      2.612      3.430
REMARK  3 active torsions:
REMARK  status: ('A' for Active; 'I' for Inactive)
REMARK    1  A    between atoms: C_1  and  O_3 
REMARK    2  A    between atoms: C_1  and  C_4 
REMARK    3  A    between atoms: C_5  and  O_10 
ROOT
ATOM      1  C   UNL d   1       8.103  -9.878 -25.111  0.00  0.00     0.070 A 
ATOM      2  C   UNL d   1       7.609 -10.943 -24.347  0.00  0.00     0.082 A 
ATOM      3  C   UNL d   1       6.489 -11.659 -24.772  0.00  0.00     0.037 A 
ATOM      4  C   UNL d   1       5.850 -11.316 -25.963  0.00  0.00     0.003 A 
ATOM      5  C   UNL d   1       6.330 -10.254 -26.730  0.00  0.00     0.001 A 
ATOM      6  C   UNL d   1       7.452  -9.538 -26.307  0.00  0.00     0.021 A 
ENDROOT
BRANCH   1   7
ATOM      7  C   UNL d   1       9.292  -9.075 -24.736  0.00  0.00     0.178 C 
ATOM      8  O   UNL d   1      10.286  -8.901 -25.416  0.00  0.00    -0.646 OA
BRANCH   7   9
ATOM      9  O   UNL d   1       9.190  -8.521 -23.509  0.00  0.00    -0.773 OA
ATOM     10  H   UNL d   1       9.243  -9.303 -22.913  0.00  0.00     0.167 HD
ENDBRANCH   7   9
ENDBRANCH   1   7
BRANCH   2  11
ATOM     11  O   UNL d   1       8.162 -11.352 -23.163  0.00  0.00    -0.360 OA
ATOM     12  H   UNL d   1       7.658 -10.922 -22.440  0.00  0.00     0.217 HD
ENDBRANCH   2  11
TORSDOF 3
ENDMDL
MODEL 9
REMARK VINA RESULT:      -5.7      1.257      2.056
REMARK  3 active torsions:
REMARK  status: ('A' for Active; 'I' for Inactive)
REMARK    1  A    between atoms: C_1  and  O_3 
REMARK    2  A    between atoms: C_1  and  C_4 
REMARK    3  A    between atoms: C_5  and  O_10 
ROOT
ATOM      1  C   UNL d   1       6.969  -9.988 -26.179  0.00  0.00     0.070 A 
ATOM      2  C   UNL d   1       6.095 -10.881 -26.814  0.00  0.00     0.082 A 
ATOM      3  C   UNL d   1       5.691 -12.051 -26.171  0.00  0.00     0.037 A 
ATOM      4  C   UNL d   1       6.159 -12.343 -24.890  0.00  0.00     0.003 A 
ATOM      5  C   UNL d   1       7.033 -11.466 -24.250  0.00  0.00     0.001 A 
ATOM      6  C   UNL d   1       7.436 -10.291 -24.891  0.00  0.00     0.021 A 
ENDROOT
BRANCH   1   7
ATOM      7  C   UNL d   1       7.438  -8.719 -26.787  0.00  0.00     0.178 C 
ATOM      8  O   UNL d   1       8.595  -8.408 -27.000  0.00  0.00    -0.646 OA
BRANCH   7   9
ATOM      9  O   UNL d   1       6.429  -7.879 -27.101  0.00  0.00    -0.773 OA
ATOM     10  H   UNL d   1       6.631  -7.084 -26.557  0.00  0.00     0.167 HD
ENDBRANCH   7   9
ENDBRANCH   1   7
BRANCH   2  11
ATOM     11  O   UNL d   1       5.587 -10.686 -28.070  0.00  0.00    -0.360 OA
ATOM     12  H   UNL d   1       6.337 -10.733 -28.700  0.00  0.00     0.217 HD
ENDBRANCH   2  11
TORSDOF 3
ENDMDL
