@<TRIPOS>MOLECULE
SAL
 16 16 0 0 0
SMALL
GASTEIGER

@<TRIPOS>ATOM
      1 C           0.9191    0.0808   -0.0117 C.2     1  UNL1        0.3404
      2 O           0.2437    1.0930   -0.0254 O.2     1  UNL1       -0.2450
      3 O           0.3366   -1.1366   -0.0025 O.3     1  UNL1       -0.4770
      4 C           2.4008    0.0158    0.0028 C.ar    1  UNL1        0.1001
      5 C           3.1292   -1.1815    0.0186 C.ar    1  UNL1        0.1308
      6 C           4.5235   -1.1601    0.0426 C.ar    1  UNL1       -0.0194
      7 C           5.2048    0.0569    0.0467 C.ar    1  UNL1       -0.0583
      8 C           4.4923    1.2547    0.0258 C.ar    1  UNL1       -0.0608
      9 C           3.0953    1.2355    0.0048 C.ar    1  UNL1       -0.0442
     10 O           2.5528   -2.4227    0.0107 O.3     1  UNL1       -0.5059
     11 H          -0.6231   -0.9190   -0.0024 H       1  UNL1        0.2954
     12 H           5.0783   -2.0950    0.0582 H       1  UNL1        0.0654
     13 H           6.2917    0.0691    0.0661 H       1  UNL1        0.0619
     14 H           5.0228    2.2036    0.0274 H       1  UNL1        0.0618
     15 H           2.5508    2.1781   -0.0095 H       1  UNL1        0.0627
     16 H           1.5808   -2.2946   -0.0103 H       1  UNL1        0.2922
@<TRIPOS>BOND
     1     1     2    2
     2     1     3    1
     3     1     4    1
     4     3    11    1
     5     4     5   ar
     6     4     9   ar
     7     5     6   ar
     8     5    10    1
     9     6     7   ar
    10     6    12    1
    11     7     8   ar
    12     7    13    1
    13     8     9   ar
    14     8    14    1
    15     9    15    1
    16    10    16    1
