REMARK  3 active torsions:
REMARK  status: ('A' for Active; 'I' for Inactive)
REMARK    1  A    between atoms: C_1  and  O_3 
REMARK    2  A    between atoms: C_1  and  C_4 
REMARK    3  A    between atoms: C_5  and  O_10 
ROOT
ATOM      1  C   UNL d   1       2.401   0.016   0.003  0.00  0.00     0.070 A 
ATOM      2  C   UNL d   1       3.129  -1.181   0.019  0.00  0.00     0.082 A 
ATOM      3  C   UNL d   1       4.524  -1.160   0.043  0.00  0.00     0.037 A 
ATOM      4  C   UNL d   1       5.205   0.057   0.047  0.00  0.00     0.003 A 
ATOM      5  C   UNL d   1       4.492   1.255   0.026  0.00  0.00     0.001 A 
ATOM      6  C   UNL d   1       3.095   1.236   0.005  0.00  0.00     0.021 A 
ENDROOT
BRANCH   1   7
ATOM      7  C   UNL d   1       0.919   0.081  -0.012  0.00  0.00     0.178 C 
ATOM      8  O   UNL d   1       0.244   1.093  -0.025  0.00  0.00    -0.646 OA
BRANCH   7   9
ATOM      9  O   UNL d   1       0.337  -1.137  -0.003  0.00  0.00    -0.773 OA
ATOM     10  H   UNL d   1      -0.623  -0.919  -0.002  0.00  0.00     0.167 HD
ENDBRANCH   7   9
ENDBRANCH   1   7
BRANCH   2  11
ATOM     11  O   UNL d   1       2.553  -2.423   0.011  0.00  0.00    -0.360 OA
ATOM     12  H   UNL d   1       1.581  -2.295  -0.010  0.00  0.00     0.217 HD
ENDBRANCH   2  11
TORSDOF 3
