MODEL 1
REMARK VINA RESULT:      -6.1      0.000      0.000
REMARK  3 active torsions:
REMARK  status: ('A' for Active; 'I' for Inactive)
REMARK    1  A    between atoms: C_1  and  O_3 
REMARK    2  A    between atoms: C_1  and  C_4 
REMARK    3  A    between atoms: C_5  and  O_10 
ROOT
ATOM      1  C   UNL d   1       6.964 -10.621 -26.203  0.00  0.00     0.070 A 
ATOM      2  C   UNL d   1       6.196 -11.617 -25.582  0.00  0.00     0.082 A 
ATOM      3  C   UNL d   1       6.524 -12.064 -24.302  0.00  0.00     0.037 A 
ATOM      4  C   UNL d   1       7.623 -11.527 -23.632  0.00  0.00     0.003 A 
ATOM      5  C   UNL d   1       8.398 -10.541 -24.242  0.00  0.00     0.001 A 
ATOM      6  C   UNL d   1       8.069 -10.089 -25.523  0.00  0.00     0.021 A 
ENDROOT
BRANCH   1   7
ATOM      7  C   UNL d   1       6.677 -10.083 -27.555  0.00  0.00     0.178 C 
ATOM      8  O   UNL d   1       5.628 -10.189 -28.164  0.00  0.00    -0.646 OA
BRANCH   7   9
ATOM      9  O   UNL d   1       7.727  -9.433 -28.099  0.00  0.00    -0.773 OA
ATOM     10  H   UNL d   1       8.156 -10.131 -28.645  0.00  0.00     0.167 HD
ENDBRANCH   7   9
ENDBRANCH   1   7
BRANCH   2  11
ATOM     11  O   UNL d   1       5.106 -12.208 -26.157  0.00  0.00    -0.360 OA
ATOM     12  H   UNL d   1       4.975 -11.789 -27.034  0.00  0.00     0.217 HD
ENDBRANCH   2  11
TORSDOF 3
ENDMDL
MODEL 2
REMARK VINA RESULT:      -6.0      1.250      2.288
REMARK  3 active torsions:
REMARK  status: ('A' for Active; 'I' for Inactive)
REMARK    1  A    between atoms: C_1  and  O_3 
REMARK    2  A    between atoms: C_1  and  C_4 
REMARK    3  A    between atoms: C_5  and  O_10 
ROOT
ATOM      1  C   UNL d   1       7.012 -11.469 -26.395  0.00  0.00     0.070 A 
ATOM      2  C   UNL d   1       7.998 -10.756 -25.698  0.00  0.00     0.082 A 
ATOM      3  C   UNL d   1       8.108 -10.877 -24.312  0.00  0.00     0.037 A 
ATOM      4  C   UNL d   1       7.234 -11.705 -23.609  0.00  0.00     0.003 A 
ATOM      5  C   UNL d   1       6.245 -12.413 -24.291  0.00  0.00     0.001 A 
ATOM      6  C   UNL d   1       6.135 -12.297 -25.679  0.00  0.00     0.021 A 
ENDROOT
BRANCH   1   7
ATOM      7  C   UNL d   1       6.834 -11.406 -27.866  0.00  0.00     0.178 C 
ATOM      8  O   UNL d   1       5.791 -11.564 -28.472  0.00  0.00    -0.646 OA
BRANCH   7   9
ATOM      9  O   UNL d   1       7.984 -11.151 -28.526  0.00  0.00    -0.773 OA
ATOM     10  H   UNL d   1       7.683 -11.059 -29.459  0.00  0.00     0.167 HD
ENDBRANCH   7   9
ENDBRANCH   1   7
BRANCH   2  11
ATOM     11  O   UNL d   1       8.897  -9.917 -26.295  0.00  0.00    -0.360 OA
ATOM     12  H   UNL d   1       9.734 -10.415 -26.405  0.00  0.00     0.217 HD
ENDBRANCH   2  11
TORSDOF 3
ENDMDL
MODEL 3
REMARK VINA RESULT:      -6.0      1.701      3.174
REMARK  3 active torsions:
REMARK  status: ('A' for Active; 'I' for Inactive)
REMARK    1  A    between atoms: C_1  and  O_3 
REMARK    2  A    between atoms: C_1  and  C_4 
REMARK    3  A    between atoms: C_5  and  O_10 
ROOT
ATOM      1  C   UNL d   1       7.031 -11.042 -25.212  0.00  0.00     0.070 A 
ATOM      2  C   UNL d   1       7.993 -10.965 -24.196  0.00  0.00     0.082 A 
ATOM      3  C   UNL d   1       8.975  -9.974 -24.226  0.00  0.00     0.037 A 
ATOM      4  C   UNL d   1       9.007  -9.053 -25.272  0.00  0.00     0.003 A 
ATOM      5  C   UNL d   1       8.060  -9.123 -26.293  0.00  0.00     0.001 A 
ATOM      6  C   UNL d   1       7.075 -10.113 -26.263  0.00  0.00     0.021 A 
ENDROOT
BRANCH   1   7
ATOM      7  C   UNL d   1       5.950 -12.056 -25.249  0.00  0.00     0.178 C 
ATOM      8  O   UNL d   1       5.692 -12.865 -24.377  0.00  0.00    -0.646 OA
BRANCH   7   9
ATOM      9  O   UNL d   1       5.232 -12.022 -26.392  0.00  0.00    -0.773 OA
ATOM     10  H   UNL d   1       5.445 -11.132 -26.755  0.00  0.00     0.167 HD
ENDBRANCH   7   9
ENDBRANCH   1   7
BRANCH   2  11
ATOM     11  O   UNL d   1       8.048 -11.824 -23.132  0.00  0.00    -0.360 OA
ATOM     12  H   UNL d   1       8.969 -11.816 -22.797  0.00  0.00     0.217 HD
ENDBRANCH   2  11
TORSDOF 3
ENDMDL
MODEL 4
REMARK VINA RESULT:      -6.0      2.732      4.134
REMARK  3 active torsions:
REMARK  status: ('A' for Active; 'I' for Inactive)
REMARK    1  A    between atoms: C_1  and  O_3 
REMARK    2  A    between atoms: C_1  and  C_4 
REMARK    3  A    between atoms: C_5  and  O_10 
ROOT
ATOM      1  C   UNL d   1       7.420  -9.714 -24.640  0.00  0.00     0.070 A 
ATOM      2  C   UNL d   1       7.995 -10.023 -25.880  0.00  0.00     0.082 A 
ATOM      3  C   UNL d   1       7.469  -9.485 -27.056  0.00  0.00     0.037 A 
ATOM      4  C   UNL d   1       6.363  -8.637 -27.004  0.00  0.00     0.003 A 
ATOM      5  C   UNL d   1       5.778  -8.328 -25.776  0.00  0.00     0.001 A 
ATOM      6  C   UNL d   1       6.305  -8.864 -24.598  0.00  0.00     0.021 A 
ENDROOT
BRANCH   1   7
ATOM      7  C   UNL d   1       7.923 -10.235 -23.345  0.00  0.00     0.178 C 
ATOM      8  O   UNL d   1       8.308  -9.569 -22.403  0.00  0.00    -0.646 OA
BRANCH   7   9
ATOM      9  O   UNL d   1       7.931 -11.583 -23.286  0.00  0.00    -0.773 OA
ATOM     10  H   UNL d   1       7.601 -11.842 -24.176  0.00  0.00     0.167 HD
ENDBRANCH   7   9
ENDBRANCH   1   7
BRANCH   2  11
ATOM     11  O   UNL d   1       9.076 -10.846 -26.035  0.00  0.00    -0.360 OA
ATOM     12  H   UNL d   1       9.438 -11.025 -25.142  0.00  0.00     0.217 HD
ENDBRANCH   2  11
TORSDOF 3
ENDMDL
MODEL 5
REMARK VINA RESULT:      -5.9      2.128      3.324
REMARK  3 active torsions:
REMARK  status: ('A' for Active; 'I' for Inactive)
REMARK    1  A    between atoms: C_1  and  O_3 
REMARK    2  A    between atoms: C_1  and  C_4 
REMARK    3  A    between atoms: C_5  and  O_10 
ROOT
ATOM      1  C   UNL d   1       8.338 -10.171 -24.883  0.00  0.00     0.070 A 
ATOM      2  C   UNL d   1       7.748 -10.473 -26.119  0.00  0.00     0.082 A 
ATOM      3  C   UNL d   1       6.766 -11.460 -26.209  0.00  0.00     0.037 A 
ATOM      4  C   UNL d   1       6.366 -12.156 -25.069  0.00  0.00     0.003 A 
ATOM      5  C   UNL d   1       6.949 -11.869 -23.836  0.00  0.00     0.001 A 
ATOM      6  C   UNL d   1       7.931 -10.879 -23.743  0.00  0.00     0.021 A 
ENDROOT
BRANCH   1   7
ATOM      7  C   UNL d   1       9.379  -9.131 -24.700  0.00  0.00     0.178 C 
ATOM      8  O   UNL d   1      10.282  -8.872 -25.474  0.00  0.00    -0.646 OA
BRANCH   7   9
ATOM      9  O   UNL d   1       9.251  -8.455 -23.539  0.00  0.00    -0.773 OA
ATOM     10  H   UNL d   1      10.043  -7.869 -23.539  0.00  0.00     0.167 HD
ENDBRANCH   7   9
ENDBRANCH   1   7
BRANCH   2  11
ATOM     11  O   UNL d   1       8.076  -9.851 -27.292  0.00  0.00    -0.360 OA
ATOM     12  H   UNL d   1       8.947 -10.202 -27.576  0.00  0.00     0.217 HD
ENDBRANCH   2  11
TORSDOF 3
ENDMDL
MODEL 6
REMARK VINA RESULT:      -5.9      1.900      3.479
REMARK  3 active torsions:
REMARK  status: ('A' for Active; 'I' for Inactive)
REMARK    1  A    between atoms: C_1  and  O_3 
REMARK    2  A    between atoms: C_1  and  C_4 
REMARK    3  A    between atoms: C_5  and  O_10 
ROOT
ATOM      1  C   UNL d   1       6.206 -10.769 -25.181  0.00  0.00     0.070 A 
ATOM      2  C   UNL d   1       5.831 -10.883 -26.527  0.00  0.00     0.082 A 
ATOM      3  C   UNL d   1       5.690  -9.743 -27.320  0.00  0.00     0.037 A 
ATOM      4  C   UNL d   1       5.918  -8.479 -26.775  0.00  0.00     0.003 A 
ATOM      5  C   UNL d   1       6.284  -8.353 -25.436  0.00  0.00     0.001 A 
ATOM      6  C   UNL d   1       6.429  -9.494 -24.642  0.00  0.00     0.021 A 
ENDROOT
BRANCH   1   7
ATOM      7  C   UNL d   1       6.388 -11.930 -24.275  0.00  0.00     0.178 C 
ATOM      8  O   UNL d   1       5.762 -12.973 -24.308  0.00  0.00    -0.646 OA
BRANCH   7   9
ATOM      9  O   UNL d   1       7.352 -11.732 -23.351  0.00  0.00    -0.773 OA
ATOM     10  H   UNL d   1       7.059 -10.905 -22.905  0.00  0.00     0.167 HD
ENDBRANCH   7   9
ENDBRANCH   1   7
BRANCH   2  11
ATOM     11  O   UNL d   1       5.582 -12.075 -27.151  0.00  0.00    -0.360 OA
ATOM     12  H   UNL d   1       6.438 -12.548 -27.230  0.00  0.00     0.217 HD
ENDBRANCH   2  11
TORSDOF 3
ENDMDL
MODEL 7
REMARK VINA RESULT:      -5.9      0.874      2.627
REMARK  3 active torsions:
REMARK  status: ('A' for Active; 'I' for Inactive)
REMARK    1  A    between atoms: C_1  and  O_3 
REMARK    2  A    between atoms: C_1  and  C_4 
REMARK    3  A    between atoms: C_5  and  O_10 
ROOT
ATOM      1  C   UNL d   1       6.896 -10.573 -26.005  0.00  0.00     0.070 A 
ATOM      2  C   UNL d   1       7.872  -9.624 -26.339  0.00  0.00     0.082 A 
ATOM      3  C   UNL d   1       8.835  -9.243 -25.404  0.00  0.00     0.037 A 
ATOM      4  C   UNL d   1       8.830  -9.801 -24.126  0.00  0.00     0.003 A 
ATOM      5  C   UNL d   1       7.859 -10.741 -23.780  0.00  0.00     0.001 A 
ATOM      6  C   UNL d   1       6.896 -11.126 -24.716  0.00  0.00     0.021 A 
ENDROOT
BRANCH   1   7
ATOM      7  C   UNL d   1       5.845 -11.040 -26.943  0.00  0.00     0.178 C 
ATOM      8  O   UNL d   1       5.580 -10.554 -28.026  0.00  0.00    -0.646 OA
BRANCH   7   9
ATOM      9  O   UNL d   1       5.158 -12.104 -26.477  0.00  0.00    -0.773 OA
ATOM     10  H   UNL d   1       5.369 -12.805 -27.136  0.00  0.00     0.167 HD
ENDBRANCH   7   9
ENDBRANCH   1   7
BRANCH   2  11
ATOM     11  O   UNL d   1       7.957  -9.017 -27.562  0.00  0.00    -0.360 OA
ATOM     12  H   UNL d   1       7.108  -9.174 -28.027  0.00  0.00     0.217 HD
ENDBRANCH   2  11
TORSDOF 3
ENDMDL
MODEL 8
REMARK VINA RESULT:      -5.8      1.543      3.062
REMARK  3 active torsions:
REMARK  status: ('A' for Active; 'I' for Inactive)
REMARK    1  A    between atoms: C_1  and  O_3 
REMARK    2  A    between atoms: C_1  and  C_4 
REMARK    3  A    between atoms: C_5  and  O_10 
ROOT
ATOM      1  C   UNL d   1       7.251 -10.928 -24.758  0.00  0.00     0.070 A 
ATOM      2  C   UNL d   1       8.268 -10.581 -25.658  0.00  0.00     0.082 A 
ATOM      3  C   UNL d   1       9.268  -9.684 -25.282  0.00  0.00     0.037 A 
ATOM      4  C   UNL d   1       9.260  -9.122 -24.006  0.00  0.00     0.003 A 
ATOM      5  C   UNL d   1       8.249  -9.453 -23.104  0.00  0.00     0.001 A 
ATOM      6  C   UNL d   1       7.249 -10.354 -23.479  0.00  0.00     0.021 A 
ENDROOT
BRANCH   1   7
ATOM      7  C   UNL d   1       6.159 -11.881 -25.076  0.00  0.00     0.178 C 
ATOM      8  O   UNL d   1       5.725 -12.748 -24.341  0.00  0.00    -0.646 OA
BRANCH   7   9
ATOM      9  O   UNL d   1       5.654 -11.711 -26.316  0.00  0.00    -0.773 OA
ATOM     10  H   UNL d   1       6.303 -12.187 -26.882  0.00  0.00     0.167 HD
ENDBRANCH   7   9
ENDBRANCH   1   7
BRANCH   2  11
ATOM     11  O   UNL d   1       8.361 -11.074 -26.931  0.00  0.00    -0.360 OA
ATOM     12  H   UNL d   1       8.391 -10.307 -27.541  0.00  0.00     0.217 HD
ENDBRANCH   2  11
TORSDOF 3
ENDMDL
MODEL 9
REMARK VINA RESULT:      -5.8      2.217      3.195
REMARK  3 active torsions:
REMARK  status: ('A' for Active; 'I' for Inactive)
REMARK    1  A    between atoms: C_1  and  O_3 
REMARK    2  A    between atoms: C_1  and  C_4 
REMARK    3  A    between atoms: C_5  and  O_10 
ROOT
ATOM      1  C   UNL d   1       6.565  -9.983 -26.377  0.00  0.00     0.070 A 
ATOM      2  C   UNL d   1       7.293 -10.344 -27.519  0.00  0.00     0.082 A 
ATOM      3  C   UNL d   1       7.350 -11.677 -27.928  0.00  0.00     0.037 A 
ATOM      4  C   UNL d   1       6.685 -12.662 -27.198  0.00  0.00     0.003 A 
ATOM      5  C   UNL d   1       5.963 -12.316 -26.056  0.00  0.00     0.001 A 
ATOM      6  C   UNL d   1       5.902 -10.981 -25.648  0.00  0.00     0.021 A 
ENDROOT
BRANCH   1   7
ATOM      7  C   UNL d   1       6.445  -8.590 -25.882  0.00  0.00     0.178 C 
ATOM      8  O   UNL d   1       6.404  -8.242 -24.717  0.00  0.00    -0.646 OA
BRANCH   7   9
ATOM      9  O   UNL d   1       6.374  -7.681 -26.877  0.00  0.00    -0.773 OA
ATOM     10  H   UNL d   1       5.605  -7.996 -27.405  0.00  0.00     0.167 HD
ENDBRANCH   7   9
ENDBRANCH   1   7
BRANCH   2  11
ATOM     11  O   UNL d   1       7.982  -9.454 -28.297  0.00  0.00    -0.360 OA
ATOM     12  H   UNL d   1       8.852  -9.304 -27.869  0.00  0.00     0.217 HD
ENDBRANCH   2  11
TORSDOF 3
ENDMDL
