@<TRIPOS>MOLECULE
SAL
 16 16 0 0 0
SMALL
GASTEIGER

@<TRIPOS>ATOM
      1 C           1.0688    0.0347    0.0530 C.2     1  UNL1        0.3404
      2 O           0.3932    1.0469    0.0396 O.2     1  UNL1       -0.2450
      3 O           0.4876   -1.1827    0.0621 O.3     1  UNL1       -0.4770
      4 C           2.5506   -0.0293    0.0675 C.ar    1  UNL1        0.1001
      5 C           3.2793   -1.2266    0.0833 C.ar    1  UNL1        0.1308
      6 C           4.6737   -1.2050    0.1074 C.ar    1  UNL1       -0.0194
      7 C           5.3548    0.0122    0.1115 C.ar    1  UNL1       -0.0583
      8 C           4.6418    1.2098    0.0904 C.ar    1  UNL1       -0.0608
      9 C           3.2453    1.1904    0.0691 C.ar    1  UNL1       -0.0442
     10 O           2.7035   -2.4681    0.0755 O.3     1  UNL1       -0.5059
     11 H          -0.4721   -0.9661    0.0622 H       1  UNL1        0.2954
     12 H           5.2287   -2.1398    0.1230 H       1  UNL1        0.0654
     13 H           6.4418    0.0245    0.1308 H       1  UNL1        0.0619
     14 H           5.1727    2.1590    0.0915 H       1  UNL1        0.0618
     15 H           2.7003    2.1328    0.0550 H       1  UNL1        0.0627
     16 H           1.7316   -2.3401    0.0533 H       1  UNL1        0.2922
@<TRIPOS>BOND
     1     1     2    2
     2     1     3    1
     3     1     4    1
     4     3    11    1
     5     4     5   ar
     6     4     9   ar
     7     5     6   ar
     8     5    10    1
     9     6     7   ar
    10     6    12    1
    11     7     8   ar
    12     7    13    1
    13     8     9   ar
    14     8    14    1
    15     9    15    1
    16    10    16    1
