REMARK  3 active torsions:
REMARK  status: ('A' for Active; 'I' for Inactive)
REMARK    1  A    between atoms: C_1  and  O_3 
REMARK    2  A    between atoms: C_1  and  C_4 
REMARK    3  A    between atoms: C_5  and  O_10 
ROOT
ATOM      1  C   UNL d   1       2.551  -0.029   0.068  0.00  0.00     0.070 A 
ATOM      2  C   UNL d   1       3.279  -1.227   0.083  0.00  0.00     0.082 A 
ATOM      3  C   UNL d   1       4.674  -1.205   0.107  0.00  0.00     0.037 A 
ATOM      4  C   UNL d   1       5.355   0.012   0.112  0.00  0.00     0.003 A 
ATOM      5  C   UNL d   1       4.642   1.210   0.090  0.00  0.00     0.001 A 
ATOM      6  C   UNL d   1       3.245   1.190   0.069  0.00  0.00     0.021 A 
ENDROOT
BRANCH   1   7
ATOM      7  C   UNL d   1       1.069   0.035   0.053  0.00  0.00     0.178 C 
ATOM      8  O   UNL d   1       0.393   1.047   0.040  0.00  0.00    -0.646 OA
BRANCH   7   9
ATOM      9  O   UNL d   1       0.488  -1.183   0.062  0.00  0.00    -0.773 OA
ATOM     10  H   UNL d   1      -0.472  -0.966   0.062  0.00  0.00     0.167 HD
ENDBRANCH   7   9
ENDBRANCH   1   7
BRANCH   2  11
ATOM     11  O   UNL d   1       2.704  -2.468   0.075  0.00  0.00    -0.360 OA
ATOM     12  H   UNL d   1       1.732  -2.340   0.053  0.00  0.00     0.217 HD
ENDBRANCH   2  11
TORSDOF 3
