@<TRIPOS>MOLECULE
PYR
 10 9 0 0 0
SMALL
GASTEIGER

@<TRIPOS>ATOM
      1 C           1.0461   -0.0196   -0.0789 C.2     1  UNL11       0.3723
      2 O           0.3471    0.8729   -0.5178 O.2     1  UNL11      -0.2419
      3 O           0.5408   -1.1295    0.4670 O.3     1  UNL11      -0.4751
      4 C           2.5817    0.0147   -0.0958 C.2     1  UNL11       0.2360
      5 O           3.1917    0.9668   -0.5643 O.2     1  UNL11      -0.2854
      6 C           3.2595   -1.1859    0.4949 C.3     1  UNL11       0.0052
      7 H          -0.4308   -1.0297    0.4180 H       1  UNL11       0.2955
      8 H           2.9809   -1.2899    1.5466 H       1  UNL11       0.0311
      9 H           2.9809   -2.0825   -0.0644 H       1  UNL11       0.0311
     10 H           4.3443   -1.0582    0.4321 H       1  UNL11       0.0311
@<TRIPOS>BOND
     1     1     2    2
     2     1     3    1
     3     1     4    1
     4     3     7    1
     5     4     5    2
     6     4     6    1
     7     6     8    1
     8     6     9    1
     9     6    10    1
