MODEL 1
REMARK VINA RESULT:      -4.0      0.000      0.000
REMARK  2 active torsions:
REMARK  status: ('A' for Active; 'I' for Inactive)
REMARK    1  A    between atoms: C_1  and  O_3 
REMARK    2  A    between atoms: C_1  and  C_4 
ROOT
ATOM      1  C   UNL d   1       7.680 -10.789 -27.571  0.00  0.00     0.213 C 
ATOM      2  O   UNL d   1       8.665 -11.263 -27.036  0.00  0.00    -0.644 OA
ENDROOT
BRANCH   1   3
ATOM      3  O   UNL d   1       7.686  -9.588 -28.157  0.00  0.00    -0.771 OA
ATOM      4  H   UNL d   1       8.623  -9.401 -28.365  0.00  0.00     0.168 HD
ENDBRANCH   1   3
BRANCH   1   5
ATOM      5  C   UNL d   1       6.322 -11.502 -27.639  0.00  0.00     0.218 C 
ATOM      6  O   UNL d   1       5.756 -11.692 -28.707  0.00  0.00    -0.286 OA
ATOM      7  C   UNL d   1       5.755 -11.936 -26.319  0.00  0.00     0.103 C 
ENDBRANCH   1   5
TORSDOF 2
ENDMDL
MODEL 2
REMARK VINA RESULT:      -4.0      1.119      2.572
REMARK  2 active torsions:
REMARK  status: ('A' for Active; 'I' for Inactive)
REMARK    1  A    between atoms: C_1  and  O_3 
REMARK    2  A    between atoms: C_1  and  C_4 
ROOT
ATOM      1  C   UNL d   1       6.163 -11.686 -27.645  0.00  0.00     0.213 C 
ATOM      2  O   UNL d   1       5.488 -12.073 -26.711  0.00  0.00    -0.644 OA
ENDROOT
BRANCH   1   3
ATOM      3  O   UNL d   1       5.738 -11.734 -28.911  0.00  0.00    -0.771 OA
ATOM      4  H   UNL d   1       6.294 -12.408 -29.351  0.00  0.00     0.168 HD
ENDBRANCH   1   3
BRANCH   1   5
ATOM      5  C   UNL d   1       7.574 -11.098 -27.491  0.00  0.00     0.218 C 
ATOM      6  O   UNL d   1       7.923 -10.107 -28.119  0.00  0.00    -0.286 OA
ATOM      7  C   UNL d   1       8.471 -11.821 -26.531  0.00  0.00     0.103 C 
ENDBRANCH   1   5
TORSDOF 2
ENDMDL
MODEL 3
REMARK VINA RESULT:      -3.9      1.479      2.029
REMARK  2 active torsions:
REMARK  status: ('A' for Active; 'I' for Inactive)
REMARK    1  A    between atoms: C_1  and  O_3 
REMARK    2  A    between atoms: C_1  and  C_4 
ROOT
ATOM      1  C   UNL d   1       6.741 -11.434 -27.898  0.00  0.00     0.213 C 
ATOM      2  O   UNL d   1       7.774 -10.869 -28.204  0.00  0.00    -0.644 OA
ENDROOT
BRANCH   1   3
ATOM      3  O   UNL d   1       5.812 -11.774 -28.797  0.00  0.00    -0.771 OA
ATOM      4  H   UNL d   1       5.834 -11.071 -29.477  0.00  0.00     0.168 HD
ENDBRANCH   1   3
BRANCH   1   5
ATOM      5  C   UNL d   1       6.376 -11.824 -26.459  0.00  0.00     0.218 C 
ATOM      6  O   UNL d   1       5.239 -12.161 -26.159  0.00  0.00    -0.286 OA
ATOM      7  C   UNL d   1       7.503 -11.760 -25.469  0.00  0.00     0.103 C 
ENDBRANCH   1   5
TORSDOF 2
ENDMDL
MODEL 4
REMARK VINA RESULT:      -3.8      1.599      2.763
REMARK  2 active torsions:
REMARK  status: ('A' for Active; 'I' for Inactive)
REMARK    1  A    between atoms: C_1  and  O_3 
REMARK    2  A    between atoms: C_1  and  C_4 
ROOT
ATOM      1  C   UNL d   1       5.848 -11.299 -27.433  0.00  0.00     0.213 C 
ATOM      2  O   UNL d   1       5.291 -11.858 -26.505  0.00  0.00    -0.644 OA
ENDROOT
BRANCH   1   3
ATOM      3  O   UNL d   1       5.782 -11.750 -28.689  0.00  0.00    -0.771 OA
ATOM      4  H   UNL d   1       5.633 -10.959 -29.245  0.00  0.00     0.168 HD
ENDBRANCH   1   3
BRANCH   1   5
ATOM      5  C   UNL d   1       6.686 -10.022 -27.279  0.00  0.00     0.218 C 
ATOM      6  O   UNL d   1       7.895 -10.027 -27.466  0.00  0.00    -0.286 OA
ATOM      7  C   UNL d   1       5.920  -8.792 -26.888  0.00  0.00     0.103 C 
ENDBRANCH   1   5
TORSDOF 2
ENDMDL
MODEL 5
REMARK VINA RESULT:      -3.8      1.984      2.107
REMARK  2 active torsions:
REMARK  status: ('A' for Active; 'I' for Inactive)
REMARK    1  A    between atoms: C_1  and  O_3 
REMARK    2  A    between atoms: C_1  and  C_4 
ROOT
ATOM      1  C   UNL d   1       7.506  -9.731 -27.385  0.00  0.00     0.213 C 
ATOM      2  O   UNL d   1       8.284  -9.119 -26.677  0.00  0.00    -0.644 OA
ENDROOT
BRANCH   1   3
ATOM      3  O   UNL d   1       7.907 -10.642 -28.276  0.00  0.00    -0.771 OA
ATOM      4  H   UNL d   1       8.872 -10.735 -28.143  0.00  0.00     0.168 HD
ENDBRANCH   1   3
BRANCH   1   5
ATOM      5  C   UNL d   1       5.984  -9.535 -27.346  0.00  0.00     0.218 C 
ATOM      6  O   UNL d   1       5.233 -10.252 -27.993  0.00  0.00    -0.286 OA
ATOM      7  C   UNL d   1       5.501  -8.416 -26.471  0.00  0.00     0.103 C 
ENDBRANCH   1   5
TORSDOF 2
ENDMDL
MODEL 6
REMARK VINA RESULT:      -3.8      3.243      3.817
REMARK  2 active torsions:
REMARK  status: ('A' for Active; 'I' for Inactive)
REMARK    1  A    between atoms: C_1  and  O_3 
REMARK    2  A    between atoms: C_1  and  C_4 
ROOT
ATOM      1  C   UNL d   1       7.049 -11.078 -23.950  0.00  0.00     0.213 C 
ATOM      2  O   UNL d   1       6.931  -9.867 -23.962  0.00  0.00    -0.644 OA
ENDROOT
BRANCH   1   3
ATOM      3  O   UNL d   1       7.988 -11.704 -23.234  0.00  0.00    -0.771 OA
ATOM      4  H   UNL d   1       7.508 -12.343 -22.670  0.00  0.00     0.168 HD
ENDBRANCH   1   3
BRANCH   1   5
ATOM      5  C   UNL d   1       6.143 -12.031 -24.744  0.00  0.00     0.218 C 
ATOM      6  O   UNL d   1       5.713 -13.063 -24.247  0.00  0.00    -0.286 OA
ATOM      7  C   UNL d   1       5.835 -11.604 -26.149  0.00  0.00     0.103 C 
ENDBRANCH   1   5
TORSDOF 2
ENDMDL
MODEL 7
REMARK VINA RESULT:      -3.7      3.385      4.095
REMARK  2 active torsions:
REMARK  status: ('A' for Active; 'I' for Inactive)
REMARK    1  A    between atoms: C_1  and  O_3 
REMARK    2  A    between atoms: C_1  and  C_4 
ROOT
ATOM      1  C   UNL d   1       9.178  -9.746 -25.160  0.00  0.00     0.213 C 
ATOM      2  O   UNL d   1       9.997  -8.854 -25.276  0.00  0.00    -0.644 OA
ENDROOT
BRANCH   1   3
ATOM      3  O   UNL d   1       9.149 -10.808 -25.971  0.00  0.00    -0.771 OA
ATOM      4  H   UNL d   1       8.884 -11.563 -25.409  0.00  0.00     0.168 HD
ENDBRANCH   1   3
BRANCH   1   5
ATOM      5  C   UNL d   1       8.087  -9.766 -24.080  0.00  0.00     0.218 C 
ATOM      6  O   UNL d   1       8.255 -10.348 -23.016  0.00  0.00    -0.286 OA
ATOM      7  C   UNL d   1       6.825  -9.033 -24.425  0.00  0.00     0.103 C 
ENDBRANCH   1   5
TORSDOF 2
ENDMDL
MODEL 8
REMARK VINA RESULT:      -3.7      3.217      4.069
REMARK  2 active torsions:
REMARK  status: ('A' for Active; 'I' for Inactive)
REMARK    1  A    between atoms: C_1  and  O_3 
REMARK    2  A    between atoms: C_1  and  C_4 
ROOT
ATOM      1  C   UNL d   1       6.365 -11.813 -24.929  0.00  0.00     0.213 C 
ATOM      2  O   UNL d   1       5.552 -12.664 -24.622  0.00  0.00    -0.644 OA
ENDROOT
BRANCH   1   3
ATOM      3  O   UNL d   1       6.560 -11.427 -26.193  0.00  0.00    -0.771 OA
ATOM      4  H   UNL d   1       5.959 -10.668 -26.333  0.00  0.00     0.168 HD
ENDBRANCH   1   3
BRANCH   1   5
ATOM      5  C   UNL d   1       7.260 -11.084 -23.917  0.00  0.00     0.218 C 
ATOM      6  O   UNL d   1       8.071 -11.692 -23.230  0.00  0.00    -0.286 OA
ATOM      7  C   UNL d   1       7.064  -9.599 -23.836  0.00  0.00     0.103 C 
ENDBRANCH   1   5
TORSDOF 2
ENDMDL
MODEL 9
REMARK VINA RESULT:      -3.7      3.073      4.010
REMARK  2 active torsions:
REMARK  status: ('A' for Active; 'I' for Inactive)
REMARK    1  A    between atoms: C_1  and  O_3 
REMARK    2  A    between atoms: C_1  and  C_4 
ROOT
ATOM      1  C   UNL d   1       7.761 -11.058 -24.242  0.00  0.00     0.213 C 
ATOM      2  O   UNL d   1       8.013 -11.677 -23.225  0.00  0.00    -0.644 OA
ENDROOT
BRANCH   1   3
ATOM      3  O   UNL d   1       6.512 -10.803 -24.640  0.00  0.00    -0.771 OA
ATOM      4  H   UNL d   1       6.055 -11.667 -24.646  0.00  0.00     0.168 HD
ENDBRANCH   1   3
BRANCH   1   5
ATOM      5  C   UNL d   1       8.835 -10.497 -25.186  0.00  0.00     0.218 C 
ATOM      6  O   UNL d   1       9.114 -11.058 -26.237  0.00  0.00    -0.286 OA
ATOM      7  C   UNL d   1       9.502  -9.235 -24.725  0.00  0.00     0.103 C 
ENDBRANCH   1   5
TORSDOF 2
ENDMDL
