REMARK  2 active torsions:
REMARK  status: ('A' for Active; 'I' for Inactive)
REMARK    1  A    between atoms: C_1  and  O_3 
REMARK    2  A    between atoms: C_1  and  C_4 
ROOT
ATOM      1  C   UNL d   1       0.940  -0.081  -0.038  0.00  0.00     0.213 C 
ATOM      2  O   UNL d   1       0.289   0.177   0.957  0.00  0.00    -0.644 OA
ENDROOT
BRANCH   1   3
ATOM      3  O   UNL d   1       0.375  -0.385  -1.210  0.00  0.00    -0.771 OA
ATOM      4  H   UNL d   1      -0.590  -0.345  -1.056  0.00  0.00     0.168 HD
ENDBRANCH   1   3
BRANCH   1   5
ATOM      5  C   UNL d   1       2.475  -0.090  -0.073  0.00  0.00     0.218 C 
ATOM      6  O   UNL d   1       3.087  -0.356  -1.099  0.00  0.00    -0.286 OA
ATOM      7  C   UNL d   1       3.151   0.245   1.224  0.00  0.00     0.103 C 
ENDBRANCH   1   5
TORSDOF 2
