@<TRIPOS>MOLECULE
PYR
 10 9 0 0 0
SMALL
GASTEIGER

@<TRIPOS>ATOM
      1 C           0.9396   -0.0810   -0.0377 C.2     1  UNL1        0.3723
      2 O           0.2894    0.1771    0.9566 O.2     1  UNL1       -0.2419
      3 O           0.3748   -0.3851   -1.2097 O.3     1  UNL1       -0.4751
      4 C           2.4755   -0.0903   -0.0726 C.2     1  UNL1        0.2360
      5 O           3.0869   -0.3558   -1.0994 O.2     1  UNL1       -0.2854
      6 C           3.1508    0.2449    1.2243 C.3     1  UNL1        0.0052
      7 H          -0.5900   -0.3451   -1.0561 H       1  UNL1        0.2955
      8 H           2.8704    1.2529    1.5391 H       1  UNL1        0.0311
      9 H           2.8705   -0.4853    1.9879 H       1  UNL1        0.0311
     10 H           4.2353    0.2098    1.0889 H       1  UNL1        0.0311
@<TRIPOS>BOND
     1     1     2    2
     2     1     3    1
     3     1     4    1
     4     3     7    1
     5     4     5    2
     6     4     6    1
     7     6     8    1
     8     6     9    1
     9     6    10    1
