REMARK  3 active torsions:
REMARK  status: ('A' for Active; 'I' for Inactive)
REMARK    1  A    between atoms: C_1  and  O_3 
REMARK    2  A    between atoms: C_1  and  C_4 
REMARK    3  A    between atoms: C_5  and  O_10 
ROOT
ATOM      1  C   UNL d   1       2.409  -0.100  -0.042  0.00  0.00     0.070 A 
ATOM      2  C   UNL d   1       3.137  -1.297  -0.026  0.00  0.00     0.082 A 
ATOM      3  C   UNL d   1       4.532  -1.277   0.002  0.00  0.00     0.037 A 
ATOM      4  C   UNL d   1       5.214  -0.061   0.005  0.00  0.00     0.003 A 
ATOM      5  C   UNL d   1       4.502   1.137  -0.020  0.00  0.00     0.001 A 
ATOM      6  C   UNL d   1       3.105   1.119  -0.041  0.00  0.00     0.021 A 
ENDROOT
BRANCH   1   7
ATOM      7  C   UNL d   1       0.926  -0.036  -0.055  0.00  0.00     0.178 C 
ATOM      8  O   UNL d   1       0.248   0.973  -0.068  0.00  0.00    -0.646 OA
BRANCH   7   9
ATOM      9  O   UNL d   1       0.348  -1.257  -0.041  0.00  0.00    -0.773 OA
ATOM     10  H   UNL d   1      -0.613  -1.047  -0.032  0.00  0.00     0.167 HD
ENDBRANCH   7   9
ENDBRANCH   1   7
BRANCH   2  11
ATOM     11  O   UNL d   1       2.562  -2.539  -0.037  0.00  0.00    -0.360 OA
ATOM     12  H   UNL d   1       1.590  -2.410  -0.065  0.00  0.00     0.217 HD
ENDBRANCH   2  11
TORSDOF 3
