@<TRIPOS>MOLECULE
SAL
 16 16 0 0 0
SMALL
GASTEIGER

@<TRIPOS>ATOM
      1 C           0.9259   -0.0364   -0.0548 C.2     1  UNL1        0.3404
      2 O           0.2480    0.9732   -0.0682 O.2     1  UNL1       -0.2450
      3 O           0.3482   -1.2567   -0.0411 O.3     1  UNL1       -0.4770
      4 C           2.4088   -0.0995   -0.0424 C.ar    1  UNL1        0.1001
      5 C           3.1372   -1.2968   -0.0261 C.ar    1  UNL1        0.1308
      6 C           4.5315   -1.2771    0.0017 C.ar    1  UNL1       -0.0194
      7 C           5.2143   -0.0614    0.0050 C.ar    1  UNL1       -0.0583
      8 C           4.5020    1.1366   -0.0196 C.ar    1  UNL1       -0.0608
      9 C           3.1050    1.1195   -0.0411 C.ar    1  UNL1       -0.0442
     10 O           2.5615   -2.5386   -0.0374 O.3     1  UNL1       -0.5059
     11 H          -0.6132   -1.0466   -0.0318 H       1  UNL1        0.2954
     12 H           5.0848   -2.2128    0.0200 H       1  UNL1        0.0654
     13 H           6.3012   -0.0508    0.0256 H       1  UNL1        0.0619
     14 H           5.0354    2.0851   -0.0206 H       1  UNL1        0.0618
     15 H           2.5622    2.0631   -0.0565 H       1  UNL1        0.0627
     16 H           1.5898   -2.4105   -0.0653 H       1  UNL1        0.2922
@<TRIPOS>BOND
     1     1     2    2
     2     1     3    1
     3     1     4    1
     4     3    11    1
     5     4     5   ar
     6     4     9   ar
     7     5     6   ar
     8     5    10    1
     9     6     7   ar
    10     6    12    1
    11     7     8   ar
    12     7    13    1
    13     8     9   ar
    14     8    14    1
    15     9    15    1
    16    10    16    1
