@<TRIPOS>MOLECULE
PYR
 10 9 0 0 0
SMALL
GASTEIGER

@<TRIPOS>ATOM
      1 C           1.0197    0.0663   -0.0703 C.2     1  UNL1        0.3723
      2 O           0.3721   -0.9480    0.1024 O.2     1  UNL1       -0.2419
      3 O           0.4517    1.2582   -0.2733 O.3     1  UNL1       -0.4751
      4 C           2.5556    0.1048   -0.0767 C.2     1  UNL1        0.2360
      5 O           3.1661    1.1510   -0.2536 O.2     1  UNL1       -0.2854
      6 C           3.2315   -1.2159    0.1465 C.3     1  UNL1        0.0052
      7 H          -0.5128    1.0980   -0.2461 H       1  UNL1        0.2955
      8 H           2.9509   -1.6152    1.1243 H       1  UNL1        0.0311
      9 H           2.9509   -1.9144   -0.6457 H       1  UNL1        0.0311
     10 H           4.3163   -1.0782    0.1232 H       1  UNL1        0.0311
@<TRIPOS>BOND
     1     1     2    2
     2     1     3    1
     3     1     4    1
     4     3     7    1
     5     4     5    2
     6     4     6    1
     7     6     8    1
     8     6     9    1
     9     6    10    1
