REMARK  2 active torsions:
REMARK  status: ('A' for Active; 'I' for Inactive)
REMARK    1  A    between atoms: C_1  and  O_3 
REMARK    2  A    between atoms: C_1  and  C_4 
ROOT
ATOM      1  C   UNL d   1       1.020   0.066  -0.070  0.00  0.00     0.213 C 
ATOM      2  O   UNL d   1       0.321   1.047  -0.236  0.00  0.00    -0.644 OA
ENDROOT
BRANCH   1   3
ATOM      3  O   UNL d   1       0.514  -1.153   0.136  0.00  0.00    -0.771 OA
ATOM      4  H   UNL d   1      -0.458  -1.041   0.117  0.00  0.00     0.168 HD
ENDBRANCH   1   3
BRANCH   1   5
ATOM      5  C   UNL d   1       2.556   0.105  -0.077  0.00  0.00     0.218 C 
ATOM      6  O   UNL d   1       3.166   1.151  -0.254  0.00  0.00    -0.286 OA
ATOM      7  C   UNL d   1       3.232  -1.216   0.146  0.00  0.00     0.103 C 
ENDBRANCH   1   5
TORSDOF 2
