MODEL 1
REMARK VINA RESULT:      -4.0      0.000      0.000
REMARK  2 active torsions:
REMARK  status: ('A' for Active; 'I' for Inactive)
REMARK    1  A    between atoms: C_1  and  O_3 
REMARK    2  A    between atoms: C_1  and  C_4 
ROOT
ATOM      1  C   UNL d   1       7.687 -10.757 -27.582  0.00  0.00     0.213 C 
ATOM      2  O   UNL d   1       8.672 -11.244 -27.063  0.00  0.00    -0.644 OA
ENDROOT
BRANCH   1   3
ATOM      3  O   UNL d   1       7.698  -9.554 -28.162  0.00  0.00    -0.771 OA
ATOM      4  H   UNL d   1       7.941  -8.920 -27.458  0.00  0.00     0.168 HD
ENDBRANCH   1   3
BRANCH   1   5
ATOM      5  C   UNL d   1       6.319 -11.453 -27.636  0.00  0.00     0.218 C 
ATOM      6  O   UNL d   1       5.770 -11.695 -28.704  0.00  0.00    -0.286 OA
ATOM      7  C   UNL d   1       5.720 -11.809 -26.307  0.00  0.00     0.103 C 
ENDBRANCH   1   5
TORSDOF 2
ENDMDL
MODEL 2
REMARK VINA RESULT:      -4.0      1.138      2.589
REMARK  2 active torsions:
REMARK  status: ('A' for Active; 'I' for Inactive)
REMARK    1  A    between atoms: C_1  and  O_3 
REMARK    2  A    between atoms: C_1  and  C_4 
ROOT
ATOM      1  C   UNL d   1       6.163 -11.693 -27.645  0.00  0.00     0.213 C 
ATOM      2  O   UNL d   1       5.484 -12.068 -26.709  0.00  0.00    -0.644 OA
ENDROOT
BRANCH   1   3
ATOM      3  O   UNL d   1       5.739 -11.747 -28.910  0.00  0.00    -0.771 OA
ATOM      4  H   UNL d   1       4.764 -11.683 -28.869  0.00  0.00     0.168 HD
ENDBRANCH   1   3
BRANCH   1   5
ATOM      5  C   UNL d   1       7.579 -11.119 -27.495  0.00  0.00     0.218 C 
ATOM      6  O   UNL d   1       7.933 -10.127 -28.122  0.00  0.00    -0.286 OA
ATOM      7  C   UNL d   1       8.478 -11.849 -26.541  0.00  0.00     0.103 C 
ENDBRANCH   1   5
TORSDOF 2
ENDMDL
MODEL 3
REMARK VINA RESULT:      -3.9      1.469      2.041
REMARK  2 active torsions:
REMARK  status: ('A' for Active; 'I' for Inactive)
REMARK    1  A    between atoms: C_1  and  O_3 
REMARK    2  A    between atoms: C_1  and  C_4 
ROOT
ATOM      1  C   UNL d   1       6.716 -11.385 -27.887  0.00  0.00     0.213 C 
ATOM      2  O   UNL d   1       7.717 -10.758 -28.176  0.00  0.00    -0.644 OA
ENDROOT
BRANCH   1   3
ATOM      3  O   UNL d   1       5.818 -11.766 -28.799  0.00  0.00    -0.771 OA
ATOM      4  H   UNL d   1       6.152 -12.608 -29.169  0.00  0.00     0.168 HD
ENDBRANCH   1   3
BRANCH   1   5
ATOM      5  C   UNL d   1       6.361 -11.813 -26.456  0.00  0.00     0.218 C 
ATOM      6  O   UNL d   1       5.222 -12.152 -26.158  0.00  0.00    -0.286 OA
ATOM      7  C   UNL d   1       7.492 -11.786 -25.472  0.00  0.00     0.103 C 
ENDBRANCH   1   5
TORSDOF 2
ENDMDL
MODEL 4
REMARK VINA RESULT:      -3.9      1.895      1.901
REMARK  2 active torsions:
REMARK  status: ('A' for Active; 'I' for Inactive)
REMARK    1  A    between atoms: C_1  and  O_3 
REMARK    2  A    between atoms: C_1  and  C_4 
ROOT
ATOM      1  C   UNL d   1       7.524  -9.666 -27.329  0.00  0.00     0.213 C 
ATOM      2  O   UNL d   1       8.156 -10.265 -26.481  0.00  0.00    -0.644 OA
ENDROOT
BRANCH   1   3
ATOM      3  O   UNL d   1       8.105  -9.075 -28.376  0.00  0.00    -0.771 OA
ATOM      4  H   UNL d   1       8.506  -8.252 -28.032  0.00  0.00     0.168 HD
ENDBRANCH   1   3
BRANCH   1   5
ATOM      5  C   UNL d   1       5.997  -9.512 -27.304  0.00  0.00     0.218 C 
ATOM      6  O   UNL d   1       5.274 -10.238 -27.976  0.00  0.00    -0.286 OA
ATOM      7  C   UNL d   1       5.468  -8.428 -26.412  0.00  0.00     0.103 C 
ENDBRANCH   1   5
TORSDOF 2
ENDMDL
MODEL 5
REMARK VINA RESULT:      -3.8      1.586      2.865
REMARK  2 active torsions:
REMARK  status: ('A' for Active; 'I' for Inactive)
REMARK    1  A    between atoms: C_1  and  O_3 
REMARK    2  A    between atoms: C_1  and  C_4 
ROOT
ATOM      1  C   UNL d   1       5.914 -11.313 -27.563  0.00  0.00     0.213 C 
ATOM      2  O   UNL d   1       5.821 -11.786 -28.680  0.00  0.00    -0.644 OA
ENDROOT
BRANCH   1   3
ATOM      3  O   UNL d   1       5.290 -11.837 -26.505  0.00  0.00    -0.771 OA
ATOM      4  H   UNL d   1       5.941 -11.821 -25.775  0.00  0.00     0.168 HD
ENDBRANCH   1   3
BRANCH   1   5
ATOM      5  C   UNL d   1       6.751 -10.070 -27.231  0.00  0.00     0.218 C 
ATOM      6  O   UNL d   1       7.975 -10.102 -27.252  0.00  0.00    -0.286 OA
ATOM      7  C   UNL d   1       5.969  -8.836 -26.888  0.00  0.00     0.103 C 
ENDBRANCH   1   5
TORSDOF 2
ENDMDL
MODEL 6
REMARK VINA RESULT:      -3.8      3.068      4.189
REMARK  2 active torsions:
REMARK  status: ('A' for Active; 'I' for Inactive)
REMARK    1  A    between atoms: C_1  and  O_3 
REMARK    2  A    between atoms: C_1  and  C_4 
ROOT
ATOM      1  C   UNL d   1       8.716 -10.762 -25.350  0.00  0.00     0.213 C 
ATOM      2  O   UNL d   1       7.737 -11.292 -24.861  0.00  0.00    -0.644 OA
ENDROOT
BRANCH   1   3
ATOM      3  O   UNL d   1       9.348 -11.262 -26.415  0.00  0.00    -0.771 OA
ATOM      4  H   UNL d   1       8.809 -12.021 -26.715  0.00  0.00     0.168 HD
ENDBRANCH   1   3
BRANCH   1   5
ATOM      5  C   UNL d   1       9.343  -9.467 -24.814  0.00  0.00     0.218 C 
ATOM      6  O   UNL d   1      10.208  -8.871 -25.443  0.00  0.00    -0.286 OA
ATOM      7  C   UNL d   1       8.823  -8.996 -23.487  0.00  0.00     0.103 C 
ENDBRANCH   1   5
TORSDOF 2
ENDMDL
MODEL 7
REMARK VINA RESULT:      -3.7      3.086      4.019
REMARK  2 active torsions:
REMARK  status: ('A' for Active; 'I' for Inactive)
REMARK    1  A    between atoms: C_1  and  O_3 
REMARK    2  A    between atoms: C_1  and  C_4 
ROOT
ATOM      1  C   UNL d   1       7.840 -11.005 -24.246  0.00  0.00     0.213 C 
ATOM      2  O   UNL d   1       8.086 -11.660 -23.251  0.00  0.00    -0.644 OA
ENDROOT
BRANCH   1   3
ATOM      3  O   UNL d   1       6.597 -10.663 -24.594  0.00  0.00    -0.771 OA
ATOM      4  H   UNL d   1       6.429  -9.797 -24.172  0.00  0.00     0.168 HD
ENDBRANCH   1   3
BRANCH   1   5
ATOM      5  C   UNL d   1       8.914 -10.494 -25.217  0.00  0.00     0.218 C 
ATOM      6  O   UNL d   1       9.172 -11.095 -26.253  0.00  0.00    -0.286 OA
ATOM      7  C   UNL d   1       9.609  -9.228 -24.809  0.00  0.00     0.103 C 
ENDBRANCH   1   5
TORSDOF 2
ENDMDL
MODEL 8
REMARK VINA RESULT:      -3.7      3.161      4.122
REMARK  2 active torsions:
REMARK  status: ('A' for Active; 'I' for Inactive)
REMARK    1  A    between atoms: C_1  and  O_3 
REMARK    2  A    between atoms: C_1  and  C_4 
ROOT
ATOM      1  C   UNL d   1       6.593 -11.937 -25.064  0.00  0.00     0.213 C 
ATOM      2  O   UNL d   1       6.936 -11.947 -26.230  0.00  0.00    -0.644 OA
ENDROOT
BRANCH   1   3
ATOM      3  O   UNL d   1       5.538 -12.622 -24.617  0.00  0.00    -0.771 OA
ATOM      4  H   UNL d   1       5.819 -13.028 -23.773  0.00  0.00     0.168 HD
ENDBRANCH   1   3
BRANCH   1   5
ATOM      5  C   UNL d   1       7.320 -11.143 -23.969  0.00  0.00     0.218 C 
ATOM      6  O   UNL d   1       8.104 -11.688 -23.202  0.00  0.00    -0.286 OA
ATOM      7  C   UNL d   1       7.003  -9.678 -23.911  0.00  0.00     0.103 C 
ENDBRANCH   1   5
TORSDOF 2
ENDMDL
MODEL 9
REMARK VINA RESULT:      -3.7      3.587      4.124
REMARK  2 active torsions:
REMARK  status: ('A' for Active; 'I' for Inactive)
REMARK    1  A    between atoms: C_1  and  O_3 
REMARK    2  A    between atoms: C_1  and  C_4 
ROOT
ATOM      1  C   UNL d   1       7.740 -10.625 -23.427  0.00  0.00     0.213 C 
ATOM      2  O   UNL d   1       7.881 -11.822 -23.272  0.00  0.00    -0.644 OA
ENDROOT
BRANCH   1   3
ATOM      3  O   UNL d   1       8.036  -9.735 -22.476  0.00  0.00    -0.771 OA
ATOM      4  H   UNL d   1       8.812  -9.239 -22.806  0.00  0.00     0.168 HD
ENDBRANCH   1   3
BRANCH   1   5
ATOM      5  C   UNL d   1       7.208  -9.990 -24.720  0.00  0.00     0.218 C 
ATOM      6  O   UNL d   1       7.478 -10.461 -25.818  0.00  0.00    -0.286 OA
ATOM      7  C   UNL d   1       6.348  -8.774 -24.539  0.00  0.00     0.103 C 
ENDBRANCH   1   5
TORSDOF 2
ENDMDL
