@<TRIPOS>MOLECULE
PYR
 10 9 0 0 0
SMALL
GASTEIGER

@<TRIPOS>ATOM
      1 C           0.9196    0.0409   -0.0605 C.2     1  UNL1        0.3723
      2 O           0.2682   -0.4699   -0.9502 O.2     1  UNL1       -0.2419
      3 O           0.3572    0.6444    0.9903 O.3     1  UNL1       -0.4751
      4 C           2.4554    0.0585   -0.0297 C.2     1  UNL1        0.2360
      5 O           3.0666    0.5857    0.8912 O.2     1  UNL1       -0.2854
      6 C           3.1338   -0.6062   -1.1911 C.3     1  UNL1        0.0052
      7 H          -0.6085    0.5678    0.8569 H       1  UNL1        0.2955
      8 H           2.8572   -1.6626   -1.2294 H       1  UNL1        0.0311
      9 H           2.8571   -0.1043   -2.1213 H       1  UNL1        0.0311
     10 H           4.2181   -0.5342   -1.0652 H       1  UNL1        0.0311
@<TRIPOS>BOND
     1     1     2    2
     2     1     3    1
     3     1     4    1
     4     3     7    1
     5     4     5    2
     6     4     6    1
     7     6     8    1
     8     6     9    1
     9     6    10    1
