REMARK  2 active torsions:
REMARK  status: ('A' for Active; 'I' for Inactive)
REMARK    1  A    between atoms: C_1  and  O_3 
REMARK    2  A    between atoms: C_1  and  C_4 
ROOT
ATOM      1  C   UNL d   1       0.920   0.041  -0.060  0.00  0.00     0.213 C 
ATOM      2  O   UNL d   1       0.268  -0.470  -0.950  0.00  0.00    -0.644 OA
ENDROOT
BRANCH   1   3
ATOM      3  O   UNL d   1       0.357   0.644   0.990  0.00  0.00    -0.771 OA
ATOM      4  H   UNL d   1      -0.609   0.568   0.857  0.00  0.00     0.168 HD
ENDBRANCH   1   3
BRANCH   1   5
ATOM      5  C   UNL d   1       2.455   0.059  -0.030  0.00  0.00     0.218 C 
ATOM      6  O   UNL d   1       3.067   0.586   0.891  0.00  0.00    -0.286 OA
ATOM      7  C   UNL d   1       3.134  -0.606  -1.191  0.00  0.00     0.103 C 
ENDBRANCH   1   5
TORSDOF 2
