MODEL 1
REMARK VINA RESULT:      -7.3      0.000      0.000
REMARK  10 active torsions:
REMARK  status: ('A' for Active; 'I' for Inactive)
REMARK    1  A    between atoms: O_4  and  C_21 
REMARK    2  A    between atoms: O_4  and  C_26 
REMARK    3  A    between atoms: O_5  and  C_22 
REMARK    4  A    between atoms: O_8  and  N_12 
REMARK    5  A    between atoms: CA_16  and  N_11 
REMARK       I    between atoms: N_11  and  C_23 
REMARK    6  A    between atoms: N_14  and  C_29 
REMARK    7  A    between atoms: CA_18  and  C_22 
REMARK    8  A    between atoms: C_19  and  C_21 
REMARK    9  A    between atoms: C_23  and  C_24 
REMARK   10  A    between atoms: C_24  and  C_25 
ROOT
ATOM      1  S   UNL d   1      37.431  -8.467  -2.815  0.00  0.00    -0.136 SA
ATOM      2  O   UNL d   1      41.536  -8.605  -2.269  0.00  0.00    -0.271 OA
ATOM      3  N   UNL d   1      39.727  -7.159  -2.499  0.00  0.00    -0.293 N 
ATOM      4  C   UNL d   1      38.754  -7.455  -3.548  0.00  0.00     0.187 C 
ATOM      5  CA  UNL d   1      39.933  -8.202  -4.272  0.00  0.00     0.211 C 
ATOM      6  C   UNL d   1      40.597  -8.143  -2.862  0.00  0.00     0.251 C 
ATOM      7  CA  UNL d   1      39.398  -6.662  -1.255  0.00  0.00     0.117 C 
ATOM      8  C   UNL d   1      38.103  -6.636  -0.823  0.00  0.00    -0.013 C 
ATOM      9  C   UNL d   1      36.940  -7.171  -1.630  0.00  0.00     0.115 C 
ENDROOT
BRANCH   5  10
ATOM     10  N   UNL d   1      39.606  -9.465  -5.023  0.00  0.00    -0.339 N 
ATOM     11  C   UNL d   1      39.644  -9.379  -6.413  0.00  0.00     0.275 C 
ATOM     12  O   UNL d   1      39.375 -10.366  -7.100  0.00  0.00    -0.266 OA
ATOM     13  H   UNL d   1      39.558 -10.381  -4.589  0.00  0.00     0.163 HD
BRANCH  11  14
ATOM     14  C   UNL d   1      40.037  -8.088  -7.140  0.00  0.00     0.180 C 
ATOM     15  N   UNL d   1      41.202  -7.521  -7.239  0.00  0.00    -0.126 NA
BRANCH  15  16
ATOM     16  O   UNL d   1      42.278  -8.155  -6.617  0.00  0.00    -0.261 OA
ATOM     17  C   UNL d   1      43.319  -8.241  -7.607  0.00  0.00     0.240 C 
ENDBRANCH  15  16
BRANCH  14  18
ATOM     18  C   UNL d   1      38.940  -7.294  -7.715  0.00  0.00     0.102 A 
ATOM     19  N   UNL d   1      37.990  -6.669  -6.916  0.00  0.00    -0.222 NA
ATOM     20  C   UNL d   1      37.215  -5.907  -7.643  0.00  0.00     0.164 A 
ATOM     21  S   UNL d   1      37.498  -5.956  -9.333  0.00  0.00    -0.062 SA
ATOM     22  C   UNL d   1      38.790  -7.047  -9.072  0.00  0.00     0.087 A 
BRANCH  20  23
ATOM     23  N   UNL d   1      36.255  -5.133  -7.117  0.00  0.00    -0.378 N 
ATOM     24  H   UNL d   1      35.286  -5.384  -7.256  0.00  0.00     0.158 HD
ATOM     25  H   UNL d   1      36.471  -4.691  -6.231  0.00  0.00     0.158 HD
ENDBRANCH  20  23
ENDBRANCH  14  18
ENDBRANCH  11  14
ENDBRANCH   5  10
BRANCH   7  26
ATOM     26  C   UNL d   1      40.501  -6.014  -0.434  0.00  0.00     0.194 C 
ATOM     27  OXT UNL d   1      40.619  -4.802  -0.306  0.00  0.00    -0.645 OA
BRANCH  26  28
ATOM     28  O   UNL d   1      41.441  -6.857   0.024  0.00  0.00    -0.772 OA
ATOM     29  H   UNL d   1      42.014  -6.505   0.738  0.00  0.00     0.167 HD
ENDBRANCH  26  28
ENDBRANCH   7  26
BRANCH   8  30
ATOM     30  C   UNL d   1      37.680  -6.136   0.551  0.00  0.00     0.216 C 
BRANCH  30  31
ATOM     31  O   UNL d   1      37.193  -7.225   1.351  0.00  0.00    -0.317 OA
BRANCH  31  32
ATOM     32  C   UNL d   1      38.073  -7.768   2.230  0.00  0.00     0.255 C 
ATOM     33  O   UNL d   1      39.247  -7.452   2.347  0.00  0.00    -0.266 OA
ATOM     34  C   UNL d   1      37.391  -8.812   3.060  0.00  0.00     0.126 C 
ENDBRANCH  31  32
ENDBRANCH  30  31
ENDBRANCH   8  30
TORSDOF 10
ENDMDL
MODEL 2
REMARK VINA RESULT:      -7.2      2.125      2.682
REMARK  10 active torsions:
REMARK  status: ('A' for Active; 'I' for Inactive)
REMARK    1  A    between atoms: O_4  and  C_21 
REMARK    2  A    between atoms: O_4  and  C_26 
REMARK    3  A    between atoms: O_5  and  C_22 
REMARK    4  A    between atoms: O_8  and  N_12 
REMARK    5  A    between atoms: CA_16  and  N_11 
REMARK       I    between atoms: N_11  and  C_23 
REMARK    6  A    between atoms: N_14  and  C_29 
REMARK    7  A    between atoms: CA_18  and  C_22 
REMARK    8  A    between atoms: C_19  and  C_21 
REMARK    9  A    between atoms: C_23  and  C_24 
REMARK   10  A    between atoms: C_24  and  C_25 
ROOT
ATOM      1  S   UNL d   1      38.615  -9.546  -1.990  0.00  0.00    -0.136 SA
ATOM      2  O   UNL d   1      41.958  -7.226  -2.771  0.00  0.00    -0.271 OA
ATOM      3  N   UNL d   1      39.734  -7.133  -2.092  0.00  0.00    -0.293 N 
ATOM      4  C   UNL d   1      38.767  -7.940  -2.834  0.00  0.00     0.187 C 
ATOM      5  CA  UNL d   1      39.774  -7.836  -4.036  0.00  0.00     0.211 C 
ATOM      6  C   UNL d   1      40.779  -7.407  -2.923  0.00  0.00     0.251 C 
ATOM      7  CA  UNL d   1      39.696  -6.938  -0.728  0.00  0.00     0.117 C 
ATOM      8  C   UNL d   1      38.883  -7.689   0.073  0.00  0.00    -0.013 C 
ATOM      9  C   UNL d   1      37.997  -8.803  -0.443  0.00  0.00     0.115 C 
ENDROOT
BRANCH   5  10
ATOM     10  N   UNL d   1      39.930  -9.042  -4.925  0.00  0.00    -0.339 N 
ATOM     11  C   UNL d   1      39.016  -9.154  -5.971  0.00  0.00     0.275 C 
ATOM     12  O   UNL d   1      39.068 -10.118  -6.735  0.00  0.00    -0.266 OA
ATOM     13  H   UNL d   1      40.749  -9.640  -4.922  0.00  0.00     0.163 HD
BRANCH  11  14
ATOM     14  C   UNL d   1      37.940  -8.093  -6.232  0.00  0.00     0.180 C 
ATOM     15  N   UNL d   1      37.980  -7.055  -7.011  0.00  0.00    -0.126 NA
BRANCH  15  16
ATOM     16  O   UNL d   1      39.150  -6.847  -7.743  0.00  0.00    -0.261 OA
ATOM     17  C   UNL d   1      38.831  -7.169  -9.109  0.00  0.00     0.240 C 
ENDBRANCH  15  16
BRANCH  14  18
ATOM     18  C   UNL d   1      36.725  -8.169  -5.406  0.00  0.00     0.102 A 
ATOM     19  N   UNL d   1      35.869  -7.084  -5.261  0.00  0.00    -0.222 NA
ATOM     20  C   UNL d   1      34.791  -7.439  -4.610  0.00  0.00     0.164 A 
ATOM     21  S   UNL d   1      34.766  -9.057  -4.042  0.00  0.00    -0.062 SA
ATOM     22  C   UNL d   1      36.295  -9.320  -4.763  0.00  0.00     0.087 A 
BRANCH  20  23
ATOM     23  N   UNL d   1      33.766  -6.605  -4.390  0.00  0.00    -0.378 N 
ATOM     24  H   UNL d   1      33.103  -6.429  -5.134  0.00  0.00     0.158 HD
ATOM     25  H   UNL d   1      33.382  -6.602  -3.452  0.00  0.00     0.158 HD
ENDBRANCH  20  23
ENDBRANCH  14  18
ENDBRANCH  11  14
ENDBRANCH   5  10
BRANCH   7  26
ATOM     26  C   UNL d   1      40.481  -5.770  -0.154  0.00  0.00     0.194 C 
ATOM     27  OXT UNL d   1      39.955  -4.731   0.229  0.00  0.00    -0.645 OA
BRANCH  26  28
ATOM     28  O   UNL d   1      41.816  -5.885  -0.235  0.00  0.00    -0.772 OA
ATOM     29  H   UNL d   1      42.271  -6.133   0.598  0.00  0.00     0.167 HD
ENDBRANCH  26  28
ENDBRANCH   7  26
BRANCH   8  30
ATOM     30  C   UNL d   1      38.823  -7.549   1.587  0.00  0.00     0.216 C 
BRANCH  30  31
ATOM     31  O   UNL d   1      37.531  -7.074   1.994  0.00  0.00    -0.317 OA
BRANCH  31  32
ATOM     32  C   UNL d   1      37.013  -7.627   3.121  0.00  0.00     0.255 C 
ATOM     33  O   UNL d   1      36.313  -7.049   3.939  0.00  0.00    -0.266 OA
ATOM     34  C   UNL d   1      37.413  -9.068   3.216  0.00  0.00     0.126 C 
ENDBRANCH  31  32
ENDBRANCH  30  31
ENDBRANCH   8  30
TORSDOF 10
ENDMDL
MODEL 3
REMARK VINA RESULT:      -7.0      3.200      8.114
REMARK  10 active torsions:
REMARK  status: ('A' for Active; 'I' for Inactive)
REMARK    1  A    between atoms: O_4  and  C_21 
REMARK    2  A    between atoms: O_4  and  C_26 
REMARK    3  A    between atoms: O_5  and  C_22 
REMARK    4  A    between atoms: O_8  and  N_12 
REMARK    5  A    between atoms: CA_16  and  N_11 
REMARK       I    between atoms: N_11  and  C_23 
REMARK    6  A    between atoms: N_14  and  C_29 
REMARK    7  A    between atoms: CA_18  and  C_22 
REMARK    8  A    between atoms: C_19  and  C_21 
REMARK    9  A    between atoms: C_23  and  C_24 
REMARK   10  A    between atoms: C_24  and  C_25 
ROOT
ATOM      1  S   UNL d   1      39.170  -9.398  -5.318  0.00  0.00    -0.136 SA
ATOM      2  O   UNL d   1      35.474  -7.784  -4.370  0.00  0.00    -0.271 OA
ATOM      3  N   UNL d   1      37.551  -7.286  -5.295  0.00  0.00    -0.293 N 
ATOM      4  C   UNL d   1      38.737  -7.783  -4.599  0.00  0.00     0.187 C 
ATOM      5  CA  UNL d   1      37.843  -7.772  -3.306  0.00  0.00     0.211 C 
ATOM      6  C   UNL d   1      36.672  -7.689  -4.334  0.00  0.00     0.251 C 
ATOM      7  CA  UNL d   1      37.423  -7.233  -6.666  0.00  0.00     0.117 C 
ATOM      8  C   UNL d   1      38.310  -7.871  -7.486  0.00  0.00    -0.013 C 
ATOM      9  C   UNL d   1      39.465  -8.707  -6.980  0.00  0.00     0.115 C 
ENDROOT
BRANCH   5  10
ATOM     10  N   UNL d   1      38.042  -8.882  -2.308  0.00  0.00    -0.339 N 
ATOM     11  C   UNL d   1      38.966  -8.636  -1.295  0.00  0.00     0.275 C 
ATOM     12  O   UNL d   1      39.196  -9.500  -0.447  0.00  0.00    -0.266 OA
ATOM     13  H   UNL d   1      37.421  -9.680  -2.224  0.00  0.00     0.163 HD
BRANCH  11  14
ATOM     14  C   UNL d   1      39.709  -7.301  -1.174  0.00  0.00     0.180 C 
ATOM     15  N   UNL d   1      39.230  -6.105  -1.000  0.00  0.00    -0.126 NA
BRANCH  15  16
ATOM     16  O   UNL d   1      37.845  -5.980  -0.891  0.00  0.00    -0.261 OA
ATOM     17  C   UNL d   1      37.549  -6.011   0.517  0.00  0.00     0.240 C 
ENDBRANCH  15  16
BRANCH  14  18
ATOM     18  C   UNL d   1      41.162  -7.330  -1.403  0.00  0.00     0.102 A 
ATOM     19  N   UNL d   1      42.045  -6.616  -0.602  0.00  0.00    -0.222 NA
ATOM     20  C   UNL d   1      43.281  -6.918  -0.905  0.00  0.00     0.164 A 
ATOM     21  S   UNL d   1      43.479  -7.994  -2.225  0.00  0.00    -0.062 SA
ATOM     22  C   UNL d   1      41.778  -8.103  -2.376  0.00  0.00     0.087 A 
BRANCH  20  23
ATOM     23  N   UNL d   1      44.335  -6.427  -0.239  0.00  0.00    -0.378 N 
ATOM     24  H   UNL d   1      45.186  -6.970  -0.192  0.00  0.00     0.158 HD
ATOM     25  H   UNL d   1      44.457  -5.422  -0.272  0.00  0.00     0.158 HD
ENDBRANCH  20  23
ENDBRANCH  14  18
ENDBRANCH  11  14
ENDBRANCH   5  10
BRANCH   7  26
ATOM     26  C   UNL d   1      36.347  -6.328  -7.245  0.00  0.00     0.194 C 
ATOM     27  OXT UNL d   1      35.331  -6.751  -7.783  0.00  0.00    -0.645 OA
BRANCH  26  28
ATOM     28  O   UNL d   1      36.654  -5.021  -7.269  0.00  0.00    -0.772 OA
ATOM     29  H   UNL d   1      36.923  -4.633  -6.409  0.00  0.00     0.167 HD
ENDBRANCH  26  28
ENDBRANCH   7  26
BRANCH   8  30
ATOM     30  C   UNL d   1      38.201  -7.882  -9.004  0.00  0.00     0.216 C 
BRANCH  30  31
ATOM     31  O   UNL d   1      39.133  -6.952  -9.578  0.00  0.00    -0.317 OA
BRANCH  31  32
ATOM     32  C   UNL d   1      38.607  -5.981 -10.367  0.00  0.00     0.255 C 
ATOM     33  O   UNL d   1      37.916  -5.049  -9.983  0.00  0.00    -0.266 OA
ATOM     34  C   UNL d   1      39.009  -6.205 -11.793  0.00  0.00     0.126 C 
ENDBRANCH  31  32
ENDBRANCH  30  31
ENDBRANCH   8  30
TORSDOF 10
ENDMDL
MODEL 4
REMARK VINA RESULT:      -6.9      2.126      3.021
REMARK  10 active torsions:
REMARK  status: ('A' for Active; 'I' for Inactive)
REMARK    1  A    between atoms: O_4  and  C_21 
REMARK    2  A    between atoms: O_4  and  C_26 
REMARK    3  A    between atoms: O_5  and  C_22 
REMARK    4  A    between atoms: O_8  and  N_12 
REMARK    5  A    between atoms: CA_16  and  N_11 
REMARK       I    between atoms: N_11  and  C_23 
REMARK    6  A    between atoms: N_14  and  C_29 
REMARK    7  A    between atoms: CA_18  and  C_22 
REMARK    8  A    between atoms: C_19  and  C_21 
REMARK    9  A    between atoms: C_23  and  C_24 
REMARK   10  A    between atoms: C_24  and  C_25 
ROOT
ATOM      1  S   UNL d   1      41.962  -7.633  -2.316  0.00  0.00    -0.136 SA
ATOM      2  O   UNL d   1      38.839  -6.836  -4.919  0.00  0.00    -0.271 OA
ATOM      3  N   UNL d   1      39.379  -7.872  -2.906  0.00  0.00    -0.293 N 
ATOM      4  C   UNL d   1      40.589  -8.690  -2.870  0.00  0.00     0.187 C 
ATOM      5  CA  UNL d   1      40.378  -8.867  -4.418  0.00  0.00     0.211 C 
ATOM      6  C   UNL d   1      39.433  -7.637  -4.248  0.00  0.00     0.251 C 
ATOM      7  CA  UNL d   1      38.955  -7.068  -1.869  0.00  0.00     0.117 C 
ATOM      8  C   UNL d   1      39.773  -6.789  -0.810  0.00  0.00    -0.013 C 
ATOM      9  C   UNL d   1      41.196  -7.291  -0.697  0.00  0.00     0.115 C 
ENDROOT
BRANCH   5  10
ATOM     10  N   UNL d   1      41.604  -8.902  -5.293  0.00  0.00    -0.339 N 
ATOM     11  C   UNL d   1      41.434  -9.449  -6.563  0.00  0.00     0.275 C 
ATOM     12  O   UNL d   1      42.392  -9.527  -7.334  0.00  0.00    -0.266 OA
ATOM     13  H   UNL d   1      42.455  -8.390  -5.088  0.00  0.00     0.163 HD
BRANCH  11  14
ATOM     14  C   UNL d   1      40.074  -9.948  -7.062  0.00  0.00     0.180 C 
ATOM     15  N   UNL d   1      39.426 -11.029  -6.744  0.00  0.00    -0.126 NA
BRANCH  15  16
ATOM     16  O   UNL d   1      40.017 -11.876  -5.806  0.00  0.00    -0.261 OA
ATOM     17  C   UNL d   1      40.476 -13.028  -6.538  0.00  0.00     0.240 C 
ENDBRANCH  15  16
BRANCH  14  18
ATOM     18  C   UNL d   1      39.444  -9.177  -8.144  0.00  0.00     0.102 A 
ATOM     19  N   UNL d   1      38.855  -7.939  -7.916  0.00  0.00    -0.222 NA
ATOM     20  C   UNL d   1      38.501  -7.387  -9.048  0.00  0.00     0.164 A 
ATOM     21  S   UNL d   1      38.754  -8.341 -10.450  0.00  0.00    -0.062 SA
ATOM     22  C   UNL d   1      39.433  -9.572  -9.474  0.00  0.00     0.087 A 
BRANCH  20  23
ATOM     23  N   UNL d   1      37.973  -6.158  -9.125  0.00  0.00    -0.378 N 
ATOM     24  H   UNL d   1      37.271  -5.965  -9.826  0.00  0.00     0.158 HD
ATOM     25  H   UNL d   1      37.866  -5.660  -8.249  0.00  0.00     0.158 HD
ENDBRANCH  20  23
ENDBRANCH  14  18
ENDBRANCH  11  14
ENDBRANCH   5  10
BRANCH   7  26
ATOM     26  C   UNL d   1      37.504  -6.615  -1.866  0.00  0.00     0.194 C 
ATOM     27  OXT UNL d   1      36.592  -7.287  -1.401  0.00  0.00    -0.645 OA
BRANCH  26  28
ATOM     28  O   UNL d   1      37.258  -5.486  -2.550  0.00  0.00    -0.772 OA
ATOM     29  H   UNL d   1      36.591  -5.561  -3.265  0.00  0.00     0.167 HD
ENDBRANCH  26  28
ENDBRANCH   7  26
BRANCH   8  30
ATOM     30  C   UNL d   1      39.379  -5.881   0.345  0.00  0.00     0.216 C 
BRANCH  30  31
ATOM     31  O   UNL d   1      39.218  -6.646   1.550  0.00  0.00    -0.317 OA
BRANCH  31  32
ATOM     32  C   UNL d   1      37.965  -7.095   1.816  0.00  0.00     0.255 C 
ATOM     33  O   UNL d   1      36.939  -6.440   1.712  0.00  0.00    -0.266 OA
ATOM     34  C   UNL d   1      38.014  -8.529   2.246  0.00  0.00     0.126 C 
ENDBRANCH  31  32
ENDBRANCH  30  31
ENDBRANCH   8  30
TORSDOF 10
ENDMDL
MODEL 5
REMARK VINA RESULT:      -6.9      3.107      8.134
REMARK  10 active torsions:
REMARK  status: ('A' for Active; 'I' for Inactive)
REMARK    1  A    between atoms: O_4  and  C_21 
REMARK    2  A    between atoms: O_4  and  C_26 
REMARK    3  A    between atoms: O_5  and  C_22 
REMARK    4  A    between atoms: O_8  and  N_12 
REMARK    5  A    between atoms: CA_16  and  N_11 
REMARK       I    between atoms: N_11  and  C_23 
REMARK    6  A    between atoms: N_14  and  C_29 
REMARK    7  A    between atoms: CA_18  and  C_22 
REMARK    8  A    between atoms: C_19  and  C_21 
REMARK    9  A    between atoms: C_23  and  C_24 
REMARK   10  A    between atoms: C_24  and  C_25 
ROOT
ATOM      1  S   UNL d   1      36.066  -6.152  -5.348  0.00  0.00    -0.136 SA
ATOM      2  O   UNL d   1      40.187  -6.525  -5.558  0.00  0.00    -0.271 OA
ATOM      3  N   UNL d   1      38.185  -7.649  -5.939  0.00  0.00    -0.293 N 
ATOM      4  C   UNL d   1      37.148  -7.549  -4.914  0.00  0.00     0.187 C 
ATOM      5  CA  UNL d   1      38.328  -7.279  -3.910  0.00  0.00     0.211 C 
ATOM      6  C   UNL d   1      39.134  -6.991  -5.214  0.00  0.00     0.251 C 
ATOM      7  CA  UNL d   1      37.936  -7.660  -7.295  0.00  0.00     0.117 C 
ATOM      8  C   UNL d   1      36.706  -7.332  -7.792  0.00  0.00    -0.013 C 
ATOM      9  C   UNL d   1      35.542  -6.901  -6.926  0.00  0.00     0.115 C 
ENDROOT
BRANCH   5  10
ATOM     10  N   UNL d   1      38.090  -6.287  -2.801  0.00  0.00    -0.339 N 
ATOM     11  C   UNL d   1      38.682  -6.585  -1.576  0.00  0.00     0.275 C 
ATOM     12  O   UNL d   1      38.524  -5.830  -0.615  0.00  0.00    -0.266 OA
ATOM     13  H   UNL d   1      37.708  -5.359  -2.950  0.00  0.00     0.163 HD
BRANCH  11  14
ATOM     14  C   UNL d   1      39.559  -7.825  -1.373  0.00  0.00     0.180 C 
ATOM     15  N   UNL d   1      39.220  -9.019  -0.988  0.00  0.00    -0.126 NA
BRANCH  15  16
ATOM     16  O   UNL d   1      37.868  -9.247  -0.725  0.00  0.00    -0.261 OA
ATOM     17  C   UNL d   1      37.369 -10.019  -1.832  0.00  0.00     0.240 C 
ENDBRANCH  15  16
BRANCH  14  18
ATOM     18  C   UNL d   1      41.011  -7.637  -1.508  0.00  0.00     0.102 A 
ATOM     19  N   UNL d   1      41.728  -6.817  -0.645  0.00  0.00    -0.222 NA
ATOM     20  C   UNL d   1      43.012  -6.929  -0.871  0.00  0.00     0.164 A 
ATOM     21  S   UNL d   1      43.448  -7.938  -2.187  0.00  0.00    -0.062 SA
ATOM     22  C   UNL d   1      41.794  -8.292  -2.447  0.00  0.00     0.087 A 
BRANCH  20  23
ATOM     23  N   UNL d   1      43.938  -6.301  -0.134  0.00  0.00    -0.378 N 
ATOM     24  H   UNL d   1      44.581  -6.849   0.422  0.00  0.00     0.158 HD
ATOM     25  H   UNL d   1      44.313  -5.443  -0.521  0.00  0.00     0.158 HD
ENDBRANCH  20  23
ENDBRANCH  14  18
ENDBRANCH  11  14
ENDBRANCH   5  10
BRANCH   7  26
ATOM     26  C   UNL d   1      39.028  -8.182  -8.215  0.00  0.00     0.194 C 
ATOM     27  OXT UNL d   1      39.155  -9.366  -8.501  0.00  0.00    -0.645 OA
BRANCH  26  28
ATOM     28  O   UNL d   1      39.949  -7.275  -8.578  0.00  0.00    -0.772 OA
ATOM     29  H   UNL d   1      40.880  -7.513  -8.376  0.00  0.00     0.167 HD
ENDBRANCH  26  28
ENDBRANCH   7  26
BRANCH   8  30
ATOM     30  C   UNL d   1      36.379  -7.289  -9.277  0.00  0.00     0.216 C 
BRANCH  30  31
ATOM     31  O   UNL d   1      35.041  -7.755  -9.507  0.00  0.00    -0.317 OA
BRANCH  31  32
ATOM     32  C   UNL d   1      34.839  -8.470 -10.644  0.00  0.00     0.255 C 
ATOM     33  O   UNL d   1      33.751  -8.754 -11.121  0.00  0.00    -0.266 OA
ATOM     34  C   UNL d   1      36.154  -8.854 -11.249  0.00  0.00     0.126 C 
ENDBRANCH  31  32
ENDBRANCH  30  31
ENDBRANCH   8  30
TORSDOF 10
ENDMDL
MODEL 6
REMARK VINA RESULT:      -6.7     12.668     17.906
REMARK  10 active torsions:
REMARK  status: ('A' for Active; 'I' for Inactive)
REMARK    1  A    between atoms: O_4  and  C_21 
REMARK    2  A    between atoms: O_4  and  C_26 
REMARK    3  A    between atoms: O_5  and  C_22 
REMARK    4  A    between atoms: O_8  and  N_12 
REMARK    5  A    between atoms: CA_16  and  N_11 
REMARK       I    between atoms: N_11  and  C_23 
REMARK    6  A    between atoms: N_14  and  C_29 
REMARK    7  A    between atoms: CA_18  and  C_22 
REMARK    8  A    between atoms: C_19  and  C_21 
REMARK    9  A    between atoms: C_23  and  C_24 
REMARK   10  A    between atoms: C_24  and  C_25 
ROOT
ATOM      1  S   UNL d   1      36.294 -11.682  11.940  0.00  0.00    -0.136 SA
ATOM      2  O   UNL d   1      37.539  -8.004  13.384  0.00  0.00    -0.271 OA
ATOM      3  N   UNL d   1      37.953  -9.610  11.751  0.00  0.00    -0.293 N 
ATOM      4  C   UNL d   1      37.969 -11.011  12.170  0.00  0.00     0.187 C 
ATOM      5  CA  UNL d   1      38.350 -10.462  13.593  0.00  0.00     0.211 C 
ATOM      6  C   UNL d   1      37.830  -9.110  13.014  0.00  0.00     0.251 C 
ATOM      7  CA  UNL d   1      37.436  -9.165  10.553  0.00  0.00     0.117 C 
ATOM      8  C   UNL d   1      36.674  -9.981   9.764  0.00  0.00    -0.013 C 
ATOM      9  C   UNL d   1      36.305 -11.400  10.138  0.00  0.00     0.115 C 
ENDROOT
BRANCH   5  10
ATOM     10  N   UNL d   1      37.776 -11.168  14.793  0.00  0.00    -0.339 N 
ATOM     11  C   UNL d   1      38.425 -12.337  15.185  0.00  0.00     0.275 C 
ATOM     12  O   UNL d   1      38.008 -12.980  16.149  0.00  0.00    -0.266 OA
ATOM     13  H   UNL d   1      37.096 -10.749  15.420  0.00  0.00     0.163 HD
BRANCH  11  14
ATOM     14  C   UNL d   1      39.676 -12.855  14.468  0.00  0.00     0.180 C 
ATOM     15  N   UNL d   1      39.773 -13.723  13.506  0.00  0.00    -0.126 NA
BRANCH  15  16
ATOM     16  O   UNL d   1      38.588 -14.275  13.019  0.00  0.00    -0.261 OA
ATOM     17  C   UNL d   1      38.211 -15.303  13.954  0.00  0.00     0.240 C 
ENDBRANCH  15  16
BRANCH  14  18
ATOM     18  C   UNL d   1      40.974 -12.417  15.004  0.00  0.00     0.102 A 
ATOM     19  N   UNL d   1      41.246 -12.429  16.366  0.00  0.00    -0.222 NA
ATOM     20  C   UNL d   1      42.504 -12.142  16.582  0.00  0.00     0.164 A 
ATOM     21  S   UNL d   1      43.423 -11.743  15.191  0.00  0.00    -0.062 SA
ATOM     22  C   UNL d   1      42.044 -12.020  14.216  0.00  0.00     0.087 A 
BRANCH  20  23
ATOM     23  N   UNL d   1      43.054 -12.152  17.804  0.00  0.00    -0.378 N 
ATOM     24  H   UNL d   1      43.647 -12.926  18.072  0.00  0.00     0.158 HD
ATOM     25  H   UNL d   1      43.309 -11.250  18.189  0.00  0.00     0.158 HD
ENDBRANCH  20  23
ENDBRANCH  14  18
ENDBRANCH  11  14
ENDBRANCH   5  10
BRANCH   7  26
ATOM     26  C   UNL d   1      37.852  -7.787  10.067  0.00  0.00     0.194 C 
ATOM     27  OXT UNL d   1      39.019  -7.420  10.008  0.00  0.00    -0.645 OA
BRANCH  26  28
ATOM     28  O   UNL d   1      36.841  -6.931   9.847  0.00  0.00    -0.772 OA
ATOM     29  H   UNL d   1      35.957  -7.340   9.734  0.00  0.00     0.167 HD
ENDBRANCH  26  28
ENDBRANCH   7  26
BRANCH   8  30
ATOM     30  C   UNL d   1      36.045  -9.539   8.452  0.00  0.00     0.216 C 
BRANCH  30  31
ATOM     31  O   UNL d   1      37.036  -8.949   7.596  0.00  0.00    -0.317 OA
BRANCH  31  32
ATOM     32  C   UNL d   1      36.575  -8.317   6.486  0.00  0.00     0.255 C 
ATOM     33  O   UNL d   1      36.864  -7.181   6.143  0.00  0.00    -0.266 OA
ATOM     34  C   UNL d   1      35.661  -9.225   5.721  0.00  0.00     0.126 C 
ENDBRANCH  31  32
ENDBRANCH  30  31
ENDBRANCH   8  30
TORSDOF 10
ENDMDL
MODEL 7
REMARK VINA RESULT:      -6.7      3.154      8.071
REMARK  10 active torsions:
REMARK  status: ('A' for Active; 'I' for Inactive)
REMARK    1  A    between atoms: O_4  and  C_21 
REMARK    2  A    between atoms: O_4  and  C_26 
REMARK    3  A    between atoms: O_5  and  C_22 
REMARK    4  A    between atoms: O_8  and  N_12 
REMARK    5  A    between atoms: CA_16  and  N_11 
REMARK       I    between atoms: N_11  and  C_23 
REMARK    6  A    between atoms: N_14  and  C_29 
REMARK    7  A    between atoms: CA_18  and  C_22 
REMARK    8  A    between atoms: C_19  and  C_21 
REMARK    9  A    between atoms: C_23  and  C_24 
REMARK   10  A    between atoms: C_24  and  C_25 
ROOT
ATOM      1  S   UNL d   1      39.849  -9.277  -6.838  0.00  0.00    -0.136 SA
ATOM      2  O   UNL d   1      36.148  -8.553  -5.122  0.00  0.00    -0.271 OA
ATOM      3  N   UNL d   1      37.985  -7.522  -6.112  0.00  0.00    -0.293 N 
ATOM      4  C   UNL d   1      39.315  -7.965  -5.696  0.00  0.00     0.187 C 
ATOM      5  CA  UNL d   1      38.623  -8.399  -4.352  0.00  0.00     0.211 C 
ATOM      6  C   UNL d   1      37.316  -8.274  -5.193  0.00  0.00     0.251 C 
ATOM      7  CA  UNL d   1      37.653  -7.176  -7.405  0.00  0.00     0.117 C 
ATOM      8  C   UNL d   1      38.489  -7.454  -8.449  0.00  0.00    -0.013 C 
ATOM      9  C   UNL d   1      39.806  -8.183  -8.296  0.00  0.00     0.115 C 
ENDROOT
BRANCH   5  10
ATOM     10  N   UNL d   1      39.111  -9.662  -3.690  0.00  0.00    -0.339 N 
ATOM     11  C   UNL d   1      39.896  -9.493  -2.552  0.00  0.00     0.275 C 
ATOM     12  O   UNL d   1      40.344 -10.476  -1.961  0.00  0.00    -0.266 OA
ATOM     13  H   UNL d   1      38.747 -10.585  -3.904  0.00  0.00     0.163 HD
BRANCH  11  14
ATOM     14  C   UNL d   1      40.214  -8.108  -1.978  0.00  0.00     0.180 C 
ATOM     15  N   UNL d   1      41.234  -7.336  -2.206  0.00  0.00    -0.126 NA
BRANCH  15  16
ATOM     16  O   UNL d   1      42.193  -7.794  -3.110  0.00  0.00    -0.261 OA
ATOM     17  C   UNL d   1      43.327  -8.197  -2.320  0.00  0.00     0.240 C 
ENDBRANCH  15  16
BRANCH  14  18
ATOM     18  C   UNL d   1      39.317  -7.608  -0.925  0.00  0.00     0.102 A 
ATOM     19  N   UNL d   1      39.348  -8.117   0.368  0.00  0.00    -0.222 NA
ATOM     20  C   UNL d   1      38.571  -7.416   1.153  0.00  0.00     0.164 A 
ATOM     21  S   UNL d   1      37.678  -6.167   0.390  0.00  0.00    -0.062 SA
ATOM     22  C   UNL d   1      38.421  -6.563  -1.100  0.00  0.00     0.087 A 
BRANCH  20  23
ATOM     23  N   UNL d   1      38.467  -7.646   2.469  0.00  0.00    -0.378 N 
ATOM     24  H   UNL d   1      39.306  -7.814   3.009  0.00  0.00     0.158 HD
ATOM     25  H   UNL d   1      37.725  -7.155   2.953  0.00  0.00     0.158 HD
ENDBRANCH  20  23
ENDBRANCH  14  18
ENDBRANCH  11  14
ENDBRANCH   5  10
BRANCH   7  26
ATOM     26  C   UNL d   1      36.395  -6.350  -7.619  0.00  0.00     0.194 C 
ATOM     27  OXT UNL d   1      36.374  -5.128  -7.545  0.00  0.00    -0.645 OA
BRANCH  26  28
ATOM     28  O   UNL d   1      35.262  -7.060  -7.746  0.00  0.00    -0.772 OA
ATOM     29  H   UNL d   1      35.128  -7.766  -7.078  0.00  0.00     0.167 HD
ENDBRANCH  26  28
ENDBRANCH   7  26
BRANCH   8  30
ATOM     30  C   UNL d   1      38.164  -7.132  -9.901  0.00  0.00     0.216 C 
BRANCH  30  31
ATOM     31  O   UNL d   1      39.061  -6.129 -10.402  0.00  0.00    -0.317 OA
BRANCH  31  32
ATOM     32  C   UNL d   1      38.536  -5.236 -11.280  0.00  0.00     0.255 C 
ATOM     33  O   UNL d   1      38.946  -4.101 -11.469  0.00  0.00    -0.266 OA
ATOM     34  C   UNL d   1      37.378  -5.849 -12.005  0.00  0.00     0.126 C 
ENDBRANCH  31  32
ENDBRANCH  30  31
ENDBRANCH   8  30
TORSDOF 10
ENDMDL
MODEL 8
REMARK VINA RESULT:      -6.6      3.481      4.868
REMARK  10 active torsions:
REMARK  status: ('A' for Active; 'I' for Inactive)
REMARK    1  A    between atoms: O_4  and  C_21 
REMARK    2  A    between atoms: O_4  and  C_26 
REMARK    3  A    between atoms: O_5  and  C_22 
REMARK    4  A    between atoms: O_8  and  N_12 
REMARK    5  A    between atoms: CA_16  and  N_11 
REMARK       I    between atoms: N_11  and  C_23 
REMARK    6  A    between atoms: N_14  and  C_29 
REMARK    7  A    between atoms: CA_18  and  C_22 
REMARK    8  A    between atoms: C_19  and  C_21 
REMARK    9  A    between atoms: C_23  and  C_24 
REMARK   10  A    between atoms: C_24  and  C_25 
ROOT
ATOM      1  S   UNL d   1      39.824  -6.944  -5.414  0.00  0.00    -0.136 SA
ATOM      2  O   UNL d   1      36.244  -6.405  -7.430  0.00  0.00    -0.271 OA
ATOM      3  N   UNL d   1      37.351  -7.787  -5.919  0.00  0.00    -0.293 N 
ATOM      4  C   UNL d   1      38.732  -8.154  -6.224  0.00  0.00     0.187 C 
ATOM      5  CA  UNL d   1      38.345  -7.901  -7.727  0.00  0.00     0.211 C 
ATOM      6  C   UNL d   1      37.133  -7.146  -7.102  0.00  0.00     0.251 C 
ATOM      7  CA  UNL d   1      36.883  -7.517  -4.650  0.00  0.00     0.117 C 
ATOM      8  C   UNL d   1      37.741  -7.336  -3.603  0.00  0.00    -0.013 C 
ATOM      9  C   UNL d   1      39.248  -7.376  -3.739  0.00  0.00     0.115 C 
ENDROOT
BRANCH   5  10
ATOM     10  N   UNL d   1      39.385  -7.280  -8.623  0.00  0.00    -0.339 N 
ATOM     11  C   UNL d   1      39.366  -7.684  -9.956  0.00  0.00     0.275 C 
ATOM     12  O   UNL d   1      40.193  -7.232 -10.750  0.00  0.00    -0.266 OA
ATOM     13  H   UNL d   1      39.941  -6.472  -8.362  0.00  0.00     0.163 HD
BRANCH  11  14
ATOM     14  C   UNL d   1      38.324  -8.671 -10.495  0.00  0.00     0.180 C 
ATOM     15  N   UNL d   1      38.382  -9.967 -10.575  0.00  0.00    -0.126 NA
BRANCH  15  16
ATOM     16  O   UNL d   1      39.538 -10.587 -10.100  0.00  0.00    -0.261 OA
ATOM     17  C   UNL d   1      39.178 -11.954  -9.831  0.00  0.00     0.240 C 
ENDBRANCH  15  16
BRANCH  14  18
ATOM     18  C   UNL d   1      37.131  -8.090 -11.129  0.00  0.00     0.102 A 
ATOM     19  N   UNL d   1      36.013  -8.860 -11.431  0.00  0.00    -0.222 NA
ATOM     20  C   UNL d   1      35.034  -8.098 -11.846  0.00  0.00     0.164 A 
ATOM     21  S   UNL d   1      35.405  -6.431 -11.998  0.00  0.00    -0.062 SA
ATOM     22  C   UNL d   1      36.985  -6.742 -11.420  0.00  0.00     0.087 A 
BRANCH  20  23
ATOM     23  N   UNL d   1      33.816  -8.573 -12.138  0.00  0.00    -0.378 N 
ATOM     24  H   UNL d   1      33.163  -8.753 -11.388  0.00  0.00     0.158 HD
ATOM     25  H   UNL d   1      33.407  -8.253 -13.008  0.00  0.00     0.158 HD
ENDBRANCH  20  23
ENDBRANCH  14  18
ENDBRANCH  11  14
ENDBRANCH   5  10
BRANCH   7  26
ATOM     26  C   UNL d   1      35.381  -7.565  -4.420  0.00  0.00     0.194 C 
ATOM     27  OXT UNL d   1      34.771  -8.600  -4.184  0.00  0.00    -0.645 OA
BRANCH  26  28
ATOM     28  O   UNL d   1      34.733  -6.410  -4.645  0.00  0.00    -0.772 OA
ATOM     29  H   UNL d   1      34.951  -5.676  -4.033  0.00  0.00     0.167 HD
ENDBRANCH  26  28
ENDBRANCH   7  26
BRANCH   8  30
ATOM     30  C   UNL d   1      37.290  -6.999  -2.189  0.00  0.00     0.216 C 
BRANCH  30  31
ATOM     31  O   UNL d   1      38.219  -6.095  -1.570  0.00  0.00    -0.317 OA
BRANCH  31  32
ATOM     32  C   UNL d   1      38.131  -5.971  -0.221  0.00  0.00     0.255 C 
ATOM     33  O   UNL d   1      37.117  -6.129   0.443  0.00  0.00    -0.266 OA
ATOM     34  C   UNL d   1      39.471  -5.624   0.351  0.00  0.00     0.126 C 
ENDBRANCH  31  32
ENDBRANCH  30  31
ENDBRANCH   8  30
TORSDOF 10
ENDMDL
MODEL 9
REMARK VINA RESULT:      -6.4      3.492      5.253
REMARK  10 active torsions:
REMARK  status: ('A' for Active; 'I' for Inactive)
REMARK    1  A    between atoms: O_4  and  C_21 
REMARK    2  A    between atoms: O_4  and  C_26 
REMARK    3  A    between atoms: O_5  and  C_22 
REMARK    4  A    between atoms: O_8  and  N_12 
REMARK    5  A    between atoms: CA_16  and  N_11 
REMARK       I    between atoms: N_11  and  C_23 
REMARK    6  A    between atoms: N_14  and  C_29 
REMARK    7  A    between atoms: CA_18  and  C_22 
REMARK    8  A    between atoms: C_19  and  C_21 
REMARK    9  A    between atoms: C_23  and  C_24 
REMARK   10  A    between atoms: C_24  and  C_25 
ROOT
ATOM      1  S   UNL d   1      39.455  -6.967  -4.977  0.00  0.00    -0.136 SA
ATOM      2  O   UNL d   1      35.677  -6.600  -6.638  0.00  0.00    -0.271 OA
ATOM      3  N   UNL d   1      37.053  -8.025  -5.415  0.00  0.00    -0.293 N 
ATOM      4  C   UNL d   1      38.434  -8.183  -5.867  0.00  0.00     0.187 C 
ATOM      5  CA  UNL d   1      37.893  -7.785  -7.289  0.00  0.00     0.211 C 
ATOM      6  C   UNL d   1      36.665  -7.266  -6.480  0.00  0.00     0.251 C 
ATOM      7  CA  UNL d   1      36.670  -7.979  -4.091  0.00  0.00     0.117 C 
ATOM      8  C   UNL d   1      37.592  -7.835  -3.093  0.00  0.00    -0.013 C 
ATOM      9  C   UNL d   1      39.076  -7.678  -3.340  0.00  0.00     0.115 C 
ENDROOT
BRANCH   5  10
ATOM     10  N   UNL d   1      38.778  -6.934  -8.161  0.00  0.00    -0.339 N 
ATOM     11  C   UNL d   1      38.720  -7.191  -9.529  0.00  0.00     0.275 C 
ATOM     12  O   UNL d   1      39.423  -6.547 -10.309  0.00  0.00    -0.266 OA
ATOM     13  H   UNL d   1      39.241  -6.090  -7.839  0.00  0.00     0.163 HD
BRANCH  11  14
ATOM     14  C   UNL d   1      37.781  -8.248 -10.121  0.00  0.00     0.180 C 
ATOM     15  N   UNL d   1      36.519  -8.157 -10.415  0.00  0.00    -0.126 NA
BRANCH  15  16
ATOM     16  O   UNL d   1      35.895  -6.930 -10.184  0.00  0.00    -0.261 OA
ATOM     17  C   UNL d   1      35.624  -6.367 -11.481  0.00  0.00     0.240 C 
ENDBRANCH  15  16
BRANCH  14  18
ATOM     18  C   UNL d   1      38.329  -9.605 -10.278  0.00  0.00     0.102 A 
ATOM     19  N   UNL d   1      39.411 -10.050  -9.528  0.00  0.00    -0.222 NA
ATOM     20  C   UNL d   1      39.615 -11.325  -9.735  0.00  0.00     0.164 A 
ATOM     21  S   UNL d   1      38.600 -12.058 -10.906  0.00  0.00    -0.062 SA
ATOM     22  C   UNL d   1      37.791 -10.566 -11.121  0.00  0.00     0.087 A 
BRANCH  20  23
ATOM     23  N   UNL d   1      40.553 -12.027  -9.084  0.00  0.00    -0.378 N 
ATOM     24  H   UNL d   1      40.488 -13.036  -9.062  0.00  0.00     0.158 HD
ATOM     25  H   UNL d   1      41.493 -11.648  -9.107  0.00  0.00     0.158 HD
ENDBRANCH  20  23
ENDBRANCH  14  18
ENDBRANCH  11  14
ENDBRANCH   5  10
BRANCH   7  26
ATOM     26  C   UNL d   1      35.208  -8.234  -3.763  0.00  0.00     0.194 C 
ATOM     27  OXT UNL d   1      34.756  -9.349  -3.533  0.00  0.00    -0.645 OA
BRANCH  26  28
ATOM     28  O   UNL d   1      34.400  -7.169  -3.893  0.00  0.00    -0.772 OA
ATOM     29  H   UNL d   1      33.734  -7.054  -3.183  0.00  0.00     0.167 HD
ENDBRANCH  26  28
ENDBRANCH   7  26
BRANCH   8  30
ATOM     30  C   UNL d   1      37.231  -7.740  -1.617  0.00  0.00     0.216 C 
BRANCH  30  31
ATOM     31  O   UNL d   1      37.229  -6.369  -1.191  0.00  0.00    -0.317 OA
BRANCH  31  32
ATOM     32  C   UNL d   1      37.648  -6.132   0.079  0.00  0.00     0.255 C 
ATOM     33  O   UNL d   1      36.938  -6.134   1.073  0.00  0.00    -0.266 OA
ATOM     34  C   UNL d   1      39.125  -5.881   0.094  0.00  0.00     0.126 C 
ENDBRANCH  31  32
ENDBRANCH  30  31
ENDBRANCH   8  30
TORSDOF 10
ENDMDL
