@<TRIPOS>MOLECULE
5742673
 47 49 0 0 0
SMALL
GASTEIGER

@<TRIPOS>ATOM
      1 S           1.3653    0.9934    0.6570 S.3     1  UNL11      -0.1310
      2 S          -7.5424    4.2491    0.6330 S.3     1  UNL11      -0.0604
      3 O          -2.4946   -0.3754    1.2857 O.2     1  UNL11      -0.2731
      4 O           2.8246   -2.9423    1.6531 O.3     1  UNL11      -0.4603
      5 O          -2.0180   -2.8623   -0.7039 O.3     1  UNL11      -0.4763
      6 OXT        -0.4499   -4.0526    0.3600 O.2     1  UNL11      -0.2437
      7 O          -2.6230    4.4851    1.3194 O.2     1  UNL11      -0.2683
      8 O          -2.9821    0.7630   -0.4314 O.2     1  UNL11      -0.3964
      9 O           4.3557   -1.4575    0.8049 O.2     1  UNL11      -0.2512
     10 N          -0.6819   -0.4932   -0.1685 N.am    1  UNL11      -0.2489
     11 N          -1.3379    2.8003    0.4904 N.am    1  UNL11      -0.2963
     12 N          -4.1042    1.5098   -0.0695 N.2     1  UNL11      -0.0779
     13 N          -5.0990    4.7138    1.2711 N.pl3   1  UNL11      -0.2233
     14 N          -6.5356    6.5029    1.6525 N.pl3   1  UNL11      -0.3375
     15 C          -0.0085    0.7581   -0.5129 C.3     1  UNL11       0.1042
     16 CA         -1.3801    1.4532   -0.1831 C.3     1  UNL11       0.1286
     17 C          -1.6878    0.1019    0.5327 C.2     1  UNL11       0.2440
     18 CA         -0.0328   -1.6926    0.0311 C.2     1  UNL11       0.1252
     19 C           1.3264   -1.7495    0.1603 C.2     1  UNL11       0.0056
     20 C           2.2206   -0.5298    0.1342 C.3     1  UNL11       0.0220
     21 C           2.0967   -3.0364    0.4193 C.3     1  UNL11       0.1166
     22 C          -0.8577   -2.9684   -0.0359 C.2     1  UNL11       0.3515
     23 C          -2.5723    3.3781    0.7806 C.2     1  UNL11       0.2684
     24 C          -3.8973    2.6714    0.4748 C.2     1  UNL11       0.1897
     25 C          -5.1273    3.4433    0.7100 C.3     1  UNL11       0.1067
     26 C           3.7352   -1.9379    1.7409 C.2     1  UNL11       0.3043
     27 C          -6.3942    3.0131    0.3454 C.3     1  UNL11       0.0067
     28 C           3.8619   -1.4837    3.1629 C.3     1  UNL11       0.0332
     29 C          -6.2913    5.2522    1.2397 C.3     1  UNL11       0.1562
     30 C          -3.3745   -0.0248   -1.5700 C.3     1  UNL11       0.1072
     31 H           0.2833    0.8194   -1.5682 H       1  UNL11       0.0644
     32 HA         -2.0487    1.5281   -1.0580 H       1  UNL11       0.0622
     33 H           2.6157   -0.3955   -0.8812 H       1  UNL11       0.0424
     34 H           3.0833   -0.6509    0.7951 H       1  UNL11       0.0424
     35 H          -0.5000    3.1964    0.9026 H       1  UNL11       0.1499
     36 H           1.4237   -3.8991    0.4777 H       1  UNL11       0.0746
     37 H           2.7836   -3.2879   -0.4022 H       1  UNL11       0.0746
     38 H          -2.3626   -1.9501   -0.8110 H       1  UNL11       0.2954
     39 H          -6.6788    2.0779   -0.1167 H       1  UNL11       0.0716
     40 H           2.8867   -1.1617    3.5375 H       1  UNL11       0.0342
     41 H           4.2618   -2.2941    3.7763 H       1  UNL11       0.0342
     42 H           4.5483   -0.6333    3.2120 H       1  UNL11       0.0342
     43 H          -4.3975   -0.4101   -1.4550 H       1  UNL11       0.0687
     44 H          -3.3259    0.5698   -2.4912 H       1  UNL11       0.0687
     45 H          -2.6983   -0.8771   -1.6619 H       1  UNL11       0.0687
     46 H          -7.4866    6.7782    1.8589 H       1  UNL11       0.1442
     47 H          -5.8210    6.9336    2.2269 H       1  UNL11       0.1442
@<TRIPOS>BOND
     1     1    15    1
     2     1    20    1
     3     2    27   ar
     4     2    29   ar
     5     3    17    2
     6     4    21    1
     7     4    26    1
     8     5    22    1
     9     5    38    1
    10     6    22    2
    11     7    23    2
    12     8    12    1
    13     8    30    1
    14     9    26    2
    15    10    15    1
    16    10    17   am
    17    10    18    1
    18    16    11    1
    19    11    23   am
    20    11    35    1
    21    12    24    2
    22    13    25   ar
    23    13    29   ar
    24    14    29    1
    25    14    46    1
    26    14    47    1
    27    15    16    1
    28    15    31    1
    29    16    17    1
    30    16    32    1
    31    18    19    2
    32    18    22    1
    33    19    20    1
    34    19    21    1
    35    20    33    1
    36    20    34    1
    37    21    36    1
    38    21    37    1
    39    23    24    1
    40    24    25    1
    41    25    27   ar
    42    26    28    1
    43    27    39    1
    44    28    40    1
    45    28    41    1
    46    28    42    1
    47    30    43    1
    48    30    44    1
    49    30    45    1
