REMARK  17 active torsions:
REMARK  status: ('A' for Active; 'I' for Inactive)
REMARK    1  A    between atoms: C_6  and  N_7 
REMARK    2  A    between atoms: N_10  and  C_11 
REMARK    3  A    between atoms: C_12  and  O_13 
REMARK    4  A    between atoms: C_14  and  O_15 
REMARK    5  A    between atoms: C_17  and  C_18 
REMARK    6  A    between atoms: C_18  and  O_19 
REMARK    7  A    between atoms: P_20  and  O_19 
REMARK    8  A    between atoms: P_20  and  O_22 
REMARK    9  A    between atoms: P_20  and  O_23 
REMARK   10  A    between atoms: P_24  and  O_23 
REMARK   11  A    between atoms: P_24  and  O_26 
REMARK   12  A    between atoms: P_24  and  O_27 
REMARK   13  A    between atoms: O_27  and  C_28 
REMARK   14  A    between atoms: C_28  and  C_36 
REMARK   15  A    between atoms: C_31  and  O_30 
REMARK   16  A    between atoms: O_32  and  C_33 
REMARK   17  A    between atoms: O_34  and  C_35 
ROOT
ATOM      1  O   UNL d   1      -1.702   7.522  -0.785  0.00  0.00    -0.294 OA
ENDROOT
BRANCH   1   2
ATOM      2  C   UNL d   1      -1.879   7.806   0.616  0.00  0.00     0.215 C 
BRANCH   2   3
ATOM      3  C   UNL d   1      -1.536   9.212   1.085  0.00  0.00     0.180 C 
ATOM      4  C   UNL d   1      -0.097   9.621   0.828  0.00  0.00     0.182 C 
ATOM      5  C   UNL d   1       0.595   9.291   2.137  0.00  0.00     0.198 C 
ATOM      6  C   UNL d   1      -0.514   9.589   3.147  0.00  0.00     0.262 C 
ATOM      7  O   UNL d   1      -1.778   9.347   2.491  0.00  0.00    -0.353 OA
BRANCH   4   8
ATOM      8  O   UNL d   1       0.009  11.047   0.615  0.00  0.00    -0.390 OA
ATOM      9  H   UNL d   1      -0.788  11.485   0.970  0.00  0.00     0.210 HD
ENDBRANCH   4   8
BRANCH   5  10
ATOM     10  O   UNL d   1       1.757  10.101   2.304  0.00  0.00    -0.388 OA
ATOM     11  H   UNL d   1       1.606  10.905   1.772  0.00  0.00     0.210 HD
ENDBRANCH   5  10
BRANCH   6  12
ATOM     12  N   UNL d   1      -0.483   8.806   4.359  0.00  0.00    -0.294 N 
ATOM     13  C   UNL d   1       0.006   7.533   4.459  0.00  0.00     0.166 A 
ATOM     14  N   UNL d   1       0.450   6.737   3.470  0.00  0.00    -0.222 NA
ATOM     15  C   UNL d   1      -0.018   7.253   5.812  0.00  0.00     0.144 A 
ATOM     16  C   UNL d   1       0.885   5.561   3.964  0.00  0.00     0.237 A 
ATOM     17  N   UNL d   1       0.931   5.156   5.252  0.00  0.00    -0.228 NA
ATOM     18  C   UNL d   1       0.496   6.005   6.207  0.00  0.00     0.135 A 
ATOM     19  N   UNL d   1      -0.561   8.299   6.526  0.00  0.00    -0.236 NA
ATOM     20  C   UNL d   1      -0.820   9.220   5.620  0.00  0.00     0.214 A 
BRANCH  18  21
ATOM     21  N   UNL d   1       0.574   5.610   7.536  0.00  0.00    -0.285 NA
ATOM     22  H   UNL d   1      -0.045   6.133   8.145  0.00  0.00     0.125 HD
ATOM     23  H   UNL d   1       0.605   4.604   7.636  0.00  0.00     0.125 HD
ENDBRANCH  18  21
ENDBRANCH   6  12
ENDBRANCH   2   3
ENDBRANCH   1   2
BRANCH   1  24
ATOM     24  P   UNL d   1      -2.594   8.479  -1.865  0.00  0.00     0.401 P 
ATOM     25  O   UNL d   1      -1.865   9.770  -1.418  0.00  0.00    -0.631 OA
BRANCH  24  26
ATOM     26  O   UNL d   1      -3.876   8.783  -0.894  0.00  0.00    -0.307 OA
ATOM     27  H   UNL d   1      -3.689   9.604  -0.402  0.00  0.00     0.222 HD
ENDBRANCH  24  26
BRANCH  24  28
ATOM     28  O   UNL d   1      -3.409   7.037  -2.365  0.00  0.00    -0.195 OA
BRANCH  28  29
ATOM     29  P   UNL d   1      -2.913   5.772  -1.294  0.00  0.00     0.401 P 
ATOM     30  O   UNL d   1      -1.696   5.478  -2.205  0.00  0.00    -0.631 OA
BRANCH  29  31
ATOM     31  O   UNL d   1      -3.797   4.585  -2.003  0.00  0.00    -0.307 OA
ATOM     32  H   UNL d   1      -3.358   4.416  -2.862  0.00  0.00     0.222 HD
ENDBRANCH  29  31
BRANCH  29  33
ATOM     33  O   UNL d   1      -4.273   6.101  -0.276  0.00  0.00    -0.294 OA
BRANCH  33  34
ATOM     34  C   UNL d   1      -4.404   5.433   0.972  0.00  0.00     0.215 C 
BRANCH  34  35
ATOM     35  C   UNL d   1      -4.470   3.909   0.888  0.00  0.00     0.180 C 
ATOM     36  O   UNL d   1      -3.251   3.427   0.294  0.00  0.00    -0.349 OA
ATOM     37  C   UNL d   1      -2.735   2.357   1.078  0.00  0.00     0.288 C 
ATOM     38  C   UNL d   1      -3.299   2.537   2.485  0.00  0.00     0.204 C 
ATOM     39  C   UNL d   1      -4.652   3.173   2.223  0.00  0.00     0.182 C 
BRANCH  37  40
ATOM     40  O   UNL d   1      -1.333   2.509   1.092  0.00  0.00    -0.369 OA
ATOM     41  H   UNL d   1      -1.045   2.342   0.176  0.00  0.00     0.212 HD
ENDBRANCH  37  40
BRANCH  38  42
ATOM     42  O   UNL d   1      -3.397   1.316   3.213  0.00  0.00    -0.388 OA
ATOM     43  H   UNL d   1      -4.347   1.077   3.238  0.00  0.00     0.210 HD
ENDBRANCH  38  42
BRANCH  39  44
ATOM     44  O   UNL d   1      -5.636   2.130   2.122  0.00  0.00    -0.390 OA
ATOM     45  H   UNL d   1      -5.578   1.705   1.247  0.00  0.00     0.210 HD
ENDBRANCH  39  44
ENDBRANCH  34  35
ENDBRANCH  33  34
ENDBRANCH  29  33
ENDBRANCH  28  29
ENDBRANCH  24  28
ENDBRANCH   1  24
TORSDOF 17
