@<TRIPOS>MOLECULE
APR
 59 62 0 0 0
SMALL
GASTEIGER

@<TRIPOS>ATOM
      1 N           4.6692   11.8513   -1.6831 N.ar    1  UNL1       -0.2188
      2 C           3.7719   12.5059   -0.9138 C.ar    1  UNL1        0.1205
      3 N           2.5308   12.1191   -0.5591 N.ar    1  UNL1       -0.2159
      4 C           2.2309   10.9265   -1.1055 C.ar    1  UNL1        0.1674
      5 C           3.0373   10.1496   -1.9143 C.ar    1  UNL1        0.1473
      6 C           4.3246   10.6461   -2.1849 C.ar    1  UNL1        0.1472
      7 N           5.2551    9.9513   -2.9460 N.pl3   1  UNL1       -0.3413
      8 N           2.3881    8.9982   -2.3041 N.ar    1  UNL1       -0.2306
      9 C           1.2193    9.0561   -1.6993 C.ar    1  UNL1        0.1004
     10 N           1.0831   10.1973   -0.9554 N.ar    1  UNL1       -0.2855
     11 C          -0.0053   10.5383   -0.0709 C.3     1  UNL1        0.1667
     12 C          -1.3674   10.7292   -0.7393 C.3     1  UNL1        0.1285
     13 O          -1.6304   12.0746   -1.1333 O.3     1  UNL1       -0.3847
     14 C          -2.3073   10.3111    0.3759 C.3     1  UNL1        0.1135
     15 O          -2.5046   11.4507    1.2428 O.3     1  UNL1       -0.3864
     16 O          -0.1396    9.4777    0.8999 O.3     1  UNL1       -0.3456
     17 C          -1.5363    9.2122    1.0847 C.3     1  UNL1        0.1134
     18 C          -1.8794    7.8062    0.6156 C.3     1  UNL1        0.0879
     19 O          -1.7019    7.5220   -0.7846 O.3     1  UNL1       -0.2837
     20 P          -2.2119    5.9918   -1.3118 P.3     1  UNL1        0.4835
     21 O          -2.6931    5.5973    0.1060 O.2     1  UNL1       -0.2269
     22 O          -0.7906    5.2024   -1.1265 O.3     1  UNL1       -0.3022
     23 O          -1.6744    6.4325   -2.8960 O.3     1  UNL1       -0.1861
     24 P          -3.0761    6.5191   -3.9062 P.3     1  UNL1        0.4835
     25 O          -2.5265    5.3565   -4.7685 O.2     1  UNL1       -0.2269
     26 O          -2.4761    7.6408   -4.9435 O.3     1  UNL1       -0.3022
     27 O          -3.6902    7.8182   -2.9427 O.3     1  UNL1       -0.2837
     28 C          -4.6328    8.7283   -3.4939 C.3     1  UNL1        0.0879
     29 O          -5.8504    7.1665   -4.8694 O.3     1  UNL1       -0.3407
     30 O          -5.7194    4.9013   -4.9662 O.3     1  UNL1       -0.3649
     31 C          -6.5268    5.9657   -4.5140 C.3     1  UNL1        0.1854
     32 O          -7.7186    5.1973   -2.4964 O.3     1  UNL1       -0.3841
     33 C          -6.6140    5.9495   -2.9900 C.3     1  UNL1        0.1339
     34 O          -8.1006    7.7884   -2.5752 O.3     1  UNL1       -0.3864
     35 C          -6.7109    7.4250   -2.6470 C.3     1  UNL1        0.1141
     36 C          -6.0025    8.1305   -3.8116 C.3     1  UNL1        0.1139
     37 H           4.0944   13.4687   -0.5270 H       1  UNL1        0.1048
     38 H           4.8370    9.2419   -3.5376 H       1  UNL1        0.1438
     39 H           5.9524   10.5611   -3.3507 H       1  UNL1        0.1438
     40 H           0.4549    8.2915   -1.7557 H       1  UNL1        0.1030
     41 H           0.2747   11.4421    0.4858 H       1  UNL1        0.0866
     42 H          -1.4861   10.0724   -1.6127 H       1  UNL1        0.0665
     43 H          -2.0434   12.5077   -0.3630 H       1  UNL1        0.2101
     44 H          -3.2972   10.0131    0.0210 H       1  UNL1        0.0647
     45 H          -1.8629   11.4107    1.9775 H       1  UNL1        0.2100
     46 H          -1.7202    9.2510    2.1662 H       1  UNL1        0.0647
     47 H          -1.2539    7.1059    1.1811 H       1  UNL1        0.0592
     48 H          -2.9379    7.6615    0.8716 H       1  UNL1        0.0592
     49 H          -0.7728    4.8289   -0.2251 H       1  UNL1        0.2220
     50 H          -1.7866    7.1723   -5.4579 H       1  UNL1        0.2220
     51 H          -4.7642    9.5226   -2.7504 H       1  UNL1        0.0592
     52 H          -4.2066    9.1947   -4.3879 H       1  UNL1        0.0592
     53 H          -5.7439    4.9518   -5.9389 H       1  UNL1        0.2126
     54 H          -7.5105    5.9274   -4.9920 H       1  UNL1        0.0935
     55 H          -8.3834    5.8438   -2.1823 H       1  UNL1        0.2101
     56 H          -5.6967    5.5146   -2.5686 H       1  UNL1        0.0671
     57 H          -8.4610    7.8929   -3.4744 H       1  UNL1        0.2100
     58 H          -6.2786    7.6518   -1.6687 H       1  UNL1        0.0648
     59 H          -6.6357    8.9298   -4.2058 H       1  UNL1        0.0647
@<TRIPOS>BOND
     1     1     2   ar
     2     1     6   ar
     3     2     3   ar
     4     2    37    1
     5     3     4   ar
     6     4     5   ar
     7     4    10   ar
     8     5     6   ar
     9     5     8   ar
    10     6     7    1
    11     7    38    1
    12     7    39    1
    13     8     9   ar
    14     9    10   ar
    15     9    40    1
    16    10    11    1
    17    11    12    1
    18    11    16    1
    19    11    41    1
    20    12    13    1
    21    12    14    1
    22    12    42    1
    23    13    43    1
    24    14    15    1
    25    14    17    1
    26    14    44    1
    27    15    45    1
    28    16    17    1
    29    18    19    1
    30    18    47    1
    31    18    48    1
    32    20    22    1
    33    20    23    1
    34    22    49    1
    35    24    26    1
    36    24    27    1
    37    26    50    1
    38    27    28    1
    39    28    36    1
    40    28    51    1
    41    28    52    1
    42    29    31    1
    43    29    36    1
    44    30    53    1
    45    31    33    1
    46    32    33    1
    47    32    55    1
    48    33    35    1
    49    33    56    1
    50    34    35    1
    51    34    57    1
    52    35    36    1
    53    35    58    1
    54    36    59    1
    55    17    46    1
    56    17    18    1
    57    20    21    2
    58    20    19    1
    59    24    25    2
    60    24    23    1
    61    31    54    1
    62    31    30    1
