@<TRIPOS>MOLECULE
APR
 59 62 0 0 0
SMALL
GASTEIGER

@<TRIPOS>ATOM
      1 N           0.9309    5.1559    5.2521 N.pl3   1  UNL11      -0.2188
      2 C           0.8853    5.5613    3.9640 C.3     1  UNL11       0.1205
      3 N           0.4500    6.7368    3.4696 N.pl3   1  UNL11      -0.2159
      4 C           0.0059    7.5329    4.4594 C.3     1  UNL11       0.1674
      5 C          -0.0182    7.2531    5.8119 C.3     1  UNL11       0.1473
      6 C           0.4957    6.0054    6.2070 C.3     1  UNL11       0.1472
      7 N           0.5737    5.6097    7.5356 N.pl3   1  UNL11      -0.3413
      8 N          -0.5614    8.2990    6.5260 N.pl3   1  UNL11      -0.2306
      9 C          -0.8195    9.2198    5.6201 C.3     1  UNL11       0.1004
     10 N          -0.4835    8.8065    4.3590 N.pl3   1  UNL11      -0.2855
     11 C          -0.5141    9.5890    3.1465 C.3     1  UNL11       0.1667
     12 C           0.5952    9.2906    2.1371 C.3     1  UNL11       0.1285
     13 O           1.7569   10.1012    2.3039 O.3     1  UNL11      -0.3847
     14 C          -0.0970    9.6209    0.8280 C.3     1  UNL11       0.1135
     15 O           0.0091   11.0466    0.6154 O.3     1  UNL11      -0.3864
     16 O          -1.7780    9.3465    2.4914 O.3     1  UNL11      -0.3456
     17 C          -1.5363    9.2122    1.0847 C.3     1  UNL11       0.1134
     18 C          -1.8794    7.8062    0.6156 C.3     1  UNL11       0.0879
     19 O          -1.7019    7.5220   -0.7846 O.3     1  UNL11      -0.2837
     20 P          -2.5941    8.4791   -1.8651 P.3     1  UNL11       0.4835
     21 O          -1.8646    9.7697   -1.4183 O.2     1  UNL11      -0.2269
     22 O          -3.8760    8.7826   -0.8945 O.3     1  UNL11      -0.3022
     23 O          -3.4091    7.0372   -2.3646 O.3     1  UNL11      -0.1861
     24 P          -2.9132    5.7722   -1.2938 P.3     1  UNL11       0.4835
     25 O          -1.6964    5.4780   -2.2050 O.2     1  UNL11      -0.2269
     26 O          -3.7971    4.5849   -2.0032 O.3     1  UNL11      -0.3022
     27 O          -4.2727    6.1009   -0.2757 O.3     1  UNL11      -0.2837
     28 C          -4.4045    5.4330    0.9721 C.3     1  UNL11       0.0879
     29 O          -3.2514    3.4270    0.2940 O.3     1  UNL11      -0.3407
     30 O          -1.3333    2.5094    1.0919 O.3     1  UNL11      -0.3649
     31 C          -2.7354    2.3569    1.0778 C.3     1  UNL11       0.1854
     32 O          -3.3974    1.3162    3.2133 O.3     1  UNL11      -0.3841
     33 C          -3.2986    2.5368    2.4852 C.3     1  UNL11       0.1339
     34 O          -5.6365    2.1295    2.1220 O.3     1  UNL11      -0.3864
     35 C          -4.6517    3.1728    2.2230 C.3     1  UNL11       0.1141
     36 C          -4.4704    3.9089    0.8884 C.3     1  UNL11       0.1139
     37 H           1.2511    4.8477    3.2308 H       1  UNL11       0.1048
     38 H          -0.0449    6.1333    8.1449 H       1  UNL11       0.1438
     39 H           0.6047    4.6042    7.6356 H       1  UNL11       0.1438
     40 H          -1.2283   10.1995    5.8327 H       1  UNL11       0.1030
     41 H          -0.5006   10.6514    3.4229 H       1  UNL11       0.0866
     42 H           0.8923    8.2326    2.1621 H       1  UNL11       0.0665
     43 H           1.6064   10.9048    1.7718 H       1  UNL11       0.2101
     44 H           0.3622    9.1403   -0.0396 H       1  UNL11       0.0647
     45 H          -0.7883   11.4847    0.9696 H       1  UNL11       0.2100
     46 H          -2.2264    9.9028    0.5828 H       1  UNL11       0.0647
     47 H          -1.2539    7.1059    1.1811 H       1  UNL11       0.0592
     48 H          -2.9379    7.6615    0.8716 H       1  UNL11       0.0592
     49 H          -3.6888    9.6041   -0.4021 H       1  UNL11       0.2220
     50 H          -3.3576    4.4156   -2.8621 H       1  UNL11       0.2220
     51 H          -3.5250    5.7109    1.5639 H       1  UNL11       0.0592
     52 H          -5.2811    5.8214    1.5006 H       1  UNL11       0.0592
     53 H          -1.0447    2.3423    0.1764 H       1  UNL11       0.2126
     54 H          -3.0095    1.3944    0.6350 H       1  UNL11       0.0935
     55 H          -4.3466    1.0775    3.2379 H       1  UNL11       0.2101
     56 H          -2.6561    3.2191    3.0596 H       1  UNL11       0.0671
     57 H          -5.5783    1.7047    1.2470 H       1  UNL11       0.2100
     58 H          -4.9694    3.8228    3.0427 H       1  UNL11       0.0648
     59 H          -5.2789    3.6438    0.2019 H       1  UNL11       0.0647
@<TRIPOS>BOND
     1     1     2   ar
     2     1     6   ar
     3     2     3   ar
     4     2    37    1
     5     3     4   ar
     6     4     5   ar
     7     4    10   ar
     8     5     6   ar
     9     5     8   ar
    10     6     7    1
    11     7    38    1
    12     7    39    1
    13     8     9   ar
    14     9    10   ar
    15     9    40    1
    16    10    11    1
    17    11    12    1
    18    11    16    1
    19    11    41    1
    20    12    13    1
    21    12    14    1
    22    12    42    1
    23    13    43    1
    24    14    15    1
    25    14    17    1
    26    14    44    1
    27    15    45    1
    28    16    17    1
    29    18    19    1
    30    18    47    1
    31    18    48    1
    32    20    22    1
    33    20    23    1
    34    22    49    1
    35    24    26    1
    36    24    27    1
    37    26    50    1
    38    27    28    1
    39    28    36    1
    40    28    51    1
    41    28    52    1
    42    29    31    1
    43    29    36    1
    44    30    53    1
    45    31    33    1
    46    32    33    1
    47    32    55    1
    48    33    35    1
    49    33    56    1
    50    34    35    1
    51    34    57    1
    52    35    36    1
    53    35    58    1
    54    36    59    1
    55    17    46    1
    56    17    18    1
    57    20    21    2
    58    20    19    1
    59    24    25    2
    60    24    23    1
    61    31    54    1
    62    31    30    1
