@<TRIPOS>MOLECULE
APR
 59 62 0 0 0
SMALL
GASTEIGER

@<TRIPOS>ATOM
      1 N          -6.1816    7.9149   -1.8664 N.pl3   1  UNL11      -0.2188
      2 C          -5.7682    6.6460   -2.0844 C.3     1  UNL11       0.1205
      3 N          -5.8856    5.5764   -1.2754 N.pl3   1  UNL11      -0.2159
      4 C          -6.4932    5.9152   -0.1236 C.3     1  UNL11       0.1674
      5 C          -6.9704    7.1615    0.2410 C.3     1  UNL11       0.1473
      6 C          -6.7782    8.2001   -0.6849 C.3     1  UNL11       0.1472
      7 N          -7.1969    9.5087   -0.4724 N.pl3   1  UNL11      -0.3413
      8 N          -7.5711    7.1086    1.4844 N.pl3   1  UNL11      -0.2306
      9 C          -7.4319    5.8607    1.8721 C.3     1  UNL11       0.1004
     10 N          -6.7680    5.1034    0.9478 N.pl3   1  UNL11      -0.2855
     11 C          -6.4420    3.6976    1.0169 C.3     1  UNL11       0.1667
     12 C          -6.4318    2.9971   -0.3381 C.3     1  UNL11       0.1285
     13 O          -7.7175    2.5563   -0.7698 O.3     1  UNL11      -0.3847
     14 C          -5.5242    1.8084   -0.0448 C.3     1  UNL11       0.1135
     15 O          -6.3194    0.7633    0.5563 O.3     1  UNL11      -0.3864
     16 O          -5.1210    3.5103    1.5902 O.3     1  UNL11      -0.3456
     17 C          -4.5073    2.3626    0.9522 C.3     1  UNL11       0.1134
     18 C          -3.1736    2.7545    0.3147 C.3     1  UNL11       0.0879
     19 O          -3.3468    3.7686   -0.6628 O.3     1  UNL11      -0.2837
     20 P          -4.3290    3.5219   -1.9836 P.3     1  UNL11       0.4835
     21 O          -4.1699    1.9818   -2.0011 O.2     1  UNL11      -0.2269
     22 O          -3.2036    3.7270   -3.1561 O.3     1  UNL11      -0.3022
     23 O          -4.5067    5.2426   -1.9642 O.3     1  UNL11      -0.1861
     24 P          -2.9962    5.9557   -2.4148 P.3     1  UNL11       0.4835
     25 O          -3.1046    5.3011   -3.8138 O.2     1  UNL11      -0.2269
     26 O          -1.9251    4.8455   -1.8820 O.3     1  UNL11      -0.3022
     27 O          -2.8750    6.6870   -0.8516 O.3     1  UNL11      -0.2837
     28 C          -1.9620    5.9868    0.0343 C.3     1  UNL11       0.0879
     29 O          -3.1402    6.6042    2.1008 O.3     1  UNL11      -0.3407
     30 O          -4.1532    4.8740    3.2829 O.3     1  UNL11      -0.3649
     31 C          -3.0661    5.7749    3.2741 C.3     1  UNL11       0.1854
     32 O          -1.2102    4.7565    4.5377 O.3     1  UNL11      -0.3841
     33 C          -1.7416    5.0089    3.2342 C.3     1  UNL11       0.1339
     34 O          -0.2789    6.9198    3.2941 O.3     1  UNL11      -0.3864
     35 C          -0.8683    5.9393    2.4132 C.3     1  UNL11       0.1141
     36 C          -1.8524    6.6173    1.4478 C.3     1  UNL11       0.1139
     37 H          -5.2848    6.4697   -3.0413 H       1  UNL11       0.1048
     38 H          -7.9354    9.5813    0.2176 H       1  UNL11       0.1438
     39 H          -7.3079   10.0155   -1.3406 H       1  UNL11       0.1438
     40 H          -7.7900    5.4493    2.8126 H       1  UNL11       0.1030
     41 H          -7.1520    3.2236    1.7094 H       1  UNL11       0.0866
     42 H          -6.0021    3.6344   -1.1104 H       1  UNL11       0.0665
     43 H          -7.8236    1.6334   -0.4559 H       1  UNL11       0.2101
     44 H          -5.0805    1.3774   -0.9452 H       1  UNL11       0.0647
     45 H          -6.3691    0.9032    1.5200 H       1  UNL11       0.2100
     46 H          -4.3028    1.6366    1.7474 H       1  UNL11       0.0647
     47 H          -2.5005    3.1178    1.0958 H       1  UNL11       0.0592
     48 H          -2.7394    1.8658   -0.1546 H       1  UNL11       0.0592
     49 H          -2.6520    2.9253   -3.1961 H       1  UNL11       0.2220
     50 H          -1.6945    4.2741   -2.6412 H       1  UNL11       0.2220
     51 H          -2.3226    4.9561    0.1025 H       1  UNL11       0.0592
     52 H          -0.9783    5.9807   -0.4468 H       1  UNL11       0.0592
     53 H          -4.9182    5.3751    3.6093 H       1  UNL11       0.2126
     54 H          -3.1237    6.4122    4.1655 H       1  UNL11       0.0935
     55 H          -0.7515    5.5669    4.8322 H       1  UNL11       0.2101
     56 H          -1.8690    4.0429    2.7347 H       1  UNL11       0.0671
     57 H          -0.9534    7.5685    3.5646 H       1  UNL11       0.2100
     58 H          -0.0405    5.4227    1.9198 H       1  UNL11       0.0648
     59 H          -1.5890    7.6743    1.3472 H       1  UNL11       0.0647
@<TRIPOS>BOND
     1     1     2   ar
     2     1     6   ar
     3     2     3   ar
     4     2    37    1
     5     3     4   ar
     6     4     5   ar
     7     4    10   ar
     8     5     6   ar
     9     5     8   ar
    10     6     7    1
    11     7    38    1
    12     7    39    1
    13     8     9   ar
    14     9    10   ar
    15     9    40    1
    16    10    11    1
    17    11    12    1
    18    11    16    1
    19    11    41    1
    20    12    13    1
    21    12    14    1
    22    12    42    1
    23    13    43    1
    24    14    15    1
    25    14    17    1
    26    14    44    1
    27    15    45    1
    28    16    17    1
    29    18    19    1
    30    18    47    1
    31    18    48    1
    32    20    22    1
    33    20    23    1
    34    22    49    1
    35    24    26    1
    36    24    27    1
    37    26    50    1
    38    27    28    1
    39    28    36    1
    40    28    51    1
    41    28    52    1
    42    29    31    1
    43    29    36    1
    44    30    53    1
    45    31    33    1
    46    32    33    1
    47    32    55    1
    48    33    35    1
    49    33    56    1
    50    34    35    1
    51    34    57    1
    52    35    36    1
    53    35    58    1
    54    36    59    1
    55    17    46    1
    56    17    18    1
    57    20    21    2
    58    20    19    1
    59    24    25    2
    60    24    23    1
    61    31    54    1
    62    31    30    1
