REMARK  17 active torsions:
REMARK  status: ('A' for Active; 'I' for Inactive)
REMARK    1  A    between atoms: C_6  and  N_7 
REMARK    2  A    between atoms: N_10  and  C_11 
REMARK    3  A    between atoms: C_12  and  O_13 
REMARK    4  A    between atoms: C_14  and  O_15 
REMARK    5  A    between atoms: C_17  and  C_18 
REMARK    6  A    between atoms: C_18  and  O_19 
REMARK    7  A    between atoms: P_20  and  O_19 
REMARK    8  A    between atoms: P_20  and  O_22 
REMARK    9  A    between atoms: P_20  and  O_23 
REMARK   10  A    between atoms: P_24  and  O_23 
REMARK   11  A    between atoms: P_24  and  O_26 
REMARK   12  A    between atoms: P_24  and  O_27 
REMARK   13  A    between atoms: O_27  and  C_28 
REMARK   14  A    between atoms: C_28  and  C_36 
REMARK   15  A    between atoms: C_31  and  O_30 
REMARK   16  A    between atoms: O_32  and  C_33 
REMARK   17  A    between atoms: O_34  and  C_35 
ROOT
ATOM      1  O   UNL d   1      -3.347   3.769  -0.663  0.00  0.00    -0.294 OA
ENDROOT
BRANCH   1   2
ATOM      2  C   UNL d   1      -3.174   2.755   0.315  0.00  0.00     0.215 C 
BRANCH   2   3
ATOM      3  C   UNL d   1      -4.507   2.363   0.952  0.00  0.00     0.180 C 
ATOM      4  C   UNL d   1      -5.524   1.808  -0.045  0.00  0.00     0.182 C 
ATOM      5  C   UNL d   1      -6.432   2.997  -0.338  0.00  0.00     0.198 C 
ATOM      6  C   UNL d   1      -6.442   3.698   1.017  0.00  0.00     0.262 C 
ATOM      7  O   UNL d   1      -5.121   3.510   1.590  0.00  0.00    -0.353 OA
BRANCH   4   8
ATOM      8  O   UNL d   1      -6.319   0.763   0.556  0.00  0.00    -0.390 OA
ATOM      9  H   UNL d   1      -6.369   0.903   1.520  0.00  0.00     0.210 HD
ENDBRANCH   4   8
BRANCH   5  10
ATOM     10  O   UNL d   1      -7.718   2.556  -0.770  0.00  0.00    -0.388 OA
ATOM     11  H   UNL d   1      -7.824   1.633  -0.456  0.00  0.00     0.210 HD
ENDBRANCH   5  10
BRANCH   6  12
ATOM     12  N   UNL d   1      -6.768   5.103   0.948  0.00  0.00    -0.294 N 
ATOM     13  C   UNL d   1      -6.493   5.915  -0.124  0.00  0.00     0.166 A 
ATOM     14  N   UNL d   1      -5.886   5.576  -1.275  0.00  0.00    -0.222 NA
ATOM     15  C   UNL d   1      -6.970   7.162   0.241  0.00  0.00     0.144 A 
ATOM     16  C   UNL d   1      -5.768   6.646  -2.084  0.00  0.00     0.237 A 
ATOM     17  N   UNL d   1      -6.182   7.915  -1.866  0.00  0.00    -0.228 NA
ATOM     18  C   UNL d   1      -6.778   8.200  -0.685  0.00  0.00     0.135 A 
ATOM     19  N   UNL d   1      -7.571   7.109   1.484  0.00  0.00    -0.236 NA
ATOM     20  C   UNL d   1      -7.432   5.861   1.872  0.00  0.00     0.214 A 
BRANCH  18  21
ATOM     21  N   UNL d   1      -7.197   9.509  -0.472  0.00  0.00    -0.285 NA
ATOM     22  H   UNL d   1      -7.935   9.581   0.218  0.00  0.00     0.125 HD
ATOM     23  H   UNL d   1      -7.308  10.015  -1.341  0.00  0.00     0.125 HD
ENDBRANCH  18  21
ENDBRANCH   6  12
ENDBRANCH   2   3
ENDBRANCH   1   2
BRANCH   1  24
ATOM     24  P   UNL d   1      -4.329   3.522  -1.984  0.00  0.00     0.401 P 
ATOM     25  O   UNL d   1      -4.170   1.982  -2.001  0.00  0.00    -0.631 OA
BRANCH  24  26
ATOM     26  O   UNL d   1      -3.204   3.727  -3.156  0.00  0.00    -0.307 OA
ATOM     27  H   UNL d   1      -2.652   2.925  -3.196  0.00  0.00     0.222 HD
ENDBRANCH  24  26
BRANCH  24  28
ATOM     28  O   UNL d   1      -4.507   5.243  -1.964  0.00  0.00    -0.195 OA
BRANCH  28  29
ATOM     29  P   UNL d   1      -2.996   5.956  -2.415  0.00  0.00     0.401 P 
ATOM     30  O   UNL d   1      -3.105   5.301  -3.814  0.00  0.00    -0.631 OA
BRANCH  29  31
ATOM     31  O   UNL d   1      -1.925   4.846  -1.882  0.00  0.00    -0.307 OA
ATOM     32  H   UNL d   1      -1.694   4.274  -2.641  0.00  0.00     0.222 HD
ENDBRANCH  29  31
BRANCH  29  33
ATOM     33  O   UNL d   1      -2.875   6.687  -0.852  0.00  0.00    -0.294 OA
BRANCH  33  34
ATOM     34  C   UNL d   1      -1.962   5.987   0.034  0.00  0.00     0.215 C 
BRANCH  34  35
ATOM     35  C   UNL d   1      -1.852   6.617   1.448  0.00  0.00     0.180 C 
ATOM     36  O   UNL d   1      -3.140   6.604   2.101  0.00  0.00    -0.349 OA
ATOM     37  C   UNL d   1      -3.066   5.775   3.274  0.00  0.00     0.288 C 
ATOM     38  C   UNL d   1      -1.742   5.009   3.234  0.00  0.00     0.204 C 
ATOM     39  C   UNL d   1      -0.868   5.939   2.413  0.00  0.00     0.182 C 
BRANCH  37  40
ATOM     40  O   UNL d   1      -4.153   4.874   3.283  0.00  0.00    -0.369 OA
ATOM     41  H   UNL d   1      -4.918   5.375   3.609  0.00  0.00     0.212 HD
ENDBRANCH  37  40
BRANCH  38  42
ATOM     42  O   UNL d   1      -1.210   4.756   4.538  0.00  0.00    -0.388 OA
ATOM     43  H   UNL d   1      -0.751   5.567   4.832  0.00  0.00     0.210 HD
ENDBRANCH  38  42
BRANCH  39  44
ATOM     44  O   UNL d   1      -0.279   6.920   3.294  0.00  0.00    -0.390 OA
ATOM     45  H   UNL d   1      -0.953   7.569   3.565  0.00  0.00     0.210 HD
ENDBRANCH  39  44
ENDBRANCH  34  35
ENDBRANCH  33  34
ENDBRANCH  29  33
ENDBRANCH  28  29
ENDBRANCH  24  28
ENDBRANCH   1  24
TORSDOF 17
