@<TRIPOS>MOLECULE
APR
 59 62 0 0 0
SMALL
GASTEIGER

@<TRIPOS>ATOM
      1 N         -10.0002    7.3087    1.8920 N.ar    1  UNL1       -0.2188
      2 C         -10.0469    5.9574    1.9036 C.ar    1  UNL1        0.1205
      3 N          -9.0397    5.0831    1.7201 N.ar    1  UNL1       -0.2159
      4 C          -7.8828    5.7310    1.4914 C.ar    1  UNL1        0.1674
      5 C          -7.6781    7.0987    1.4512 C.ar    1  UNL1        0.1473
      6 C          -8.8104    7.9065    1.6467 C.ar    1  UNL1        0.1472
      7 N          -8.7762    9.2963    1.6358 N.pl3   1  UNL1       -0.3413
      8 N          -6.3441    7.3854    1.2322 N.ar    1  UNL1       -0.2306
      9 C          -5.7632    6.2126    1.1142 C.ar    1  UNL1        0.1004
     10 N          -6.6512    5.1810    1.2399 N.ar    1  UNL1       -0.2855
     11 C          -6.3826    3.7627    1.1812 C.3     1  UNL1        0.1667
     12 C          -6.4331    3.1808   -0.2280 C.3     1  UNL1        0.1285
     13 O          -7.7458    2.8298   -0.6609 O.3     1  UNL1       -0.3847
     14 C          -5.5693    1.9364   -0.0605 C.3     1  UNL1        0.1135
     15 O          -6.3932    0.8760    0.4711 O.3     1  UNL1       -0.3864
     16 O          -5.0576    3.4749    1.7011 O.3     1  UNL1       -0.3456
     17 C          -4.5073    2.3626    0.9522 C.3     1  UNL1        0.1134
     18 C          -3.1736    2.7545    0.3147 C.3     1  UNL1        0.0879
     19 O          -3.3468    3.7686   -0.6628 O.3     1  UNL1       -0.2837
     20 P          -2.0345    4.4532   -1.4240 P.3     1  UNL1        0.4835
     21 O          -1.1943    3.1534   -1.4686 O.2     1  UNL1       -0.2269
     22 O          -1.2512    5.0034   -0.0947 O.3     1  UNL1       -0.3022
     23 O          -2.9733    5.9055   -1.3740 O.3     1  UNL1       -0.1861
     24 P          -2.6635    6.8095   -2.8162 P.3     1  UNL1        0.4835
     25 O          -1.5505    7.5976   -2.0830 O.2     1  UNL1       -0.2269
     26 O          -3.7362    8.0326   -2.6863 O.3     1  UNL1       -0.3022
     27 O          -3.9072    5.9290   -3.6353 O.3     1  UNL1       -0.2837
     28 C          -3.7753    5.9705   -5.0808 C.3     1  UNL1        0.0879
     29 O          -2.2133    4.0821   -5.2644 O.3     1  UNL1       -0.3407
     30 O          -2.9793    2.1987   -6.3972 O.3     1  UNL1       -0.3649
     31 C          -2.1165    3.3135   -6.4767 C.3     1  UNL1        0.1854
     32 O          -1.8242    3.8945   -8.8548 O.3     1  UNL1       -0.3841
     33 C          -2.5191    4.2146   -7.6465 C.3     1  UNL1        0.1339
     34 O          -0.7755    5.8538   -7.3867 O.3     1  UNL1       -0.3864
     35 C          -2.1689    5.5916   -7.1139 C.3     1  UNL1        0.1141
     36 C          -2.3998    5.4741   -5.5996 C.3     1  UNL1        0.1139
     37 H         -11.0255    5.5250    2.0926 H       1  UNL1        0.1048
     38 H          -7.8535    9.6714    1.8218 H       1  UNL1        0.1438
     39 H          -9.5601    9.6974    2.1333 H       1  UNL1        0.1438
     40 H          -4.7033    6.0494    0.9353 H       1  UNL1        0.1030
     41 H          -7.0955    3.2597    1.8499 H       1  UNL1        0.0866
     42 H          -5.9953    3.8643   -0.9549 H       1  UNL1        0.0665
     43 H          -7.8830    1.8883   -0.4234 H       1  UNL1        0.2101
     44 H          -5.1651    1.5668   -1.0057 H       1  UNL1        0.0647
     45 H          -6.4146    0.9348    1.4442 H       1  UNL1        0.2100
     46 H          -4.3148    1.5637    1.6774 H       1  UNL1        0.0647
     47 H          -2.5005    3.1178    1.0958 H       1  UNL1        0.0592
     48 H          -2.7394    1.8658   -0.1546 H       1  UNL1        0.0592
     49 H          -0.8235    4.2469    0.3449 H       1  UNL1        0.2220
     50 H          -3.2628    8.7969   -2.3018 H       1  UNL1        0.2220
     51 H          -4.5821    5.3523   -5.4855 H       1  UNL1        0.0592
     52 H          -3.9388    7.0066   -5.3954 H       1  UNL1        0.0592
     53 H          -2.5144    1.5332   -5.8645 H       1  UNL1        0.2126
     54 H          -1.0847    2.9584   -6.5924 H       1  UNL1        0.0935
     55 H          -0.9446    4.3167   -8.8109 H       1  UNL1        0.2101
     56 H          -3.5920    4.1297   -7.8480 H       1  UNL1        0.0671
     57 H          -0.2168    5.3285   -6.7859 H       1  UNL1        0.2100
     58 H          -2.7387    6.3921   -7.5934 H       1  UNL1        0.0648
     59 H          -1.6053    6.0087   -5.0708 H       1  UNL1        0.0647
@<TRIPOS>BOND
     1     1     2   ar
     2     1     6   ar
     3     2     3   ar
     4     2    37    1
     5     3     4   ar
     6     4     5   ar
     7     4    10   ar
     8     5     6   ar
     9     5     8   ar
    10     6     7    1
    11     7    38    1
    12     7    39    1
    13     8     9   ar
    14     9    10   ar
    15     9    40    1
    16    10    11    1
    17    11    12    1
    18    11    16    1
    19    11    41    1
    20    12    13    1
    21    12    14    1
    22    12    42    1
    23    13    43    1
    24    14    15    1
    25    14    17    1
    26    14    44    1
    27    15    45    1
    28    16    17    1
    29    18    19    1
    30    18    47    1
    31    18    48    1
    32    20    22    1
    33    20    23    1
    34    22    49    1
    35    24    26    1
    36    24    27    1
    37    26    50    1
    38    27    28    1
    39    28    36    1
    40    28    51    1
    41    28    52    1
    42    29    31    1
    43    29    36    1
    44    30    53    1
    45    31    33    1
    46    32    33    1
    47    32    55    1
    48    33    35    1
    49    33    56    1
    50    34    35    1
    51    34    57    1
    52    35    36    1
    53    35    58    1
    54    36    59    1
    55    17    46    1
    56    17    18    1
    57    20    21    2
    58    20    19    1
    59    24    25    2
    60    24    23    1
    61    31    54    1
    62    31    30    1
