MODEL 1
REMARK VINA RESULT:      -6.1      0.000      0.000
REMARK  3 active torsions:
REMARK  status: ('A' for Active; 'I' for Inactive)
REMARK    1  A    between atoms: C_1  and  O_3 
REMARK    2  A    between atoms: C_1  and  C_4 
REMARK    3  A    between atoms: C_5  and  O_10 
ROOT
ATOM      1  C   UNL d   1       6.966 -10.622 -26.204  0.00  0.00     0.070 A 
ATOM      2  C   UNL d   1       6.198 -11.615 -25.582  0.00  0.00     0.082 A 
ATOM      3  C   UNL d   1       6.523 -12.064 -24.301  0.00  0.00     0.037 A 
ATOM      4  C   UNL d   1       7.623 -11.527 -23.632  0.00  0.00     0.003 A 
ATOM      5  C   UNL d   1       8.399 -10.544 -24.242  0.00  0.00     0.001 A 
ATOM      6  C   UNL d   1       8.072 -10.091 -25.523  0.00  0.00     0.021 A 
ENDROOT
BRANCH   1   7
ATOM      7  C   UNL d   1       6.676 -10.081 -27.555  0.00  0.00     0.178 C 
ATOM      8  O   UNL d   1       5.627 -10.184 -28.162  0.00  0.00    -0.646 OA
BRANCH   7   9
ATOM      9  O   UNL d   1       7.727  -9.432 -28.099  0.00  0.00    -0.773 OA
ATOM     10  H   UNL d   1       8.491  -9.787 -27.591  0.00  0.00     0.167 HD
ENDBRANCH   7   9
ENDBRANCH   1   7
BRANCH   2  11
ATOM     11  O   UNL d   1       5.107 -12.208 -26.159  0.00  0.00    -0.360 OA
ATOM     12  H   UNL d   1       5.156 -12.035 -27.123  0.00  0.00     0.217 HD
ENDBRANCH   2  11
TORSDOF 3
ENDMDL
MODEL 2
REMARK VINA RESULT:      -6.0      1.258      2.291
REMARK  3 active torsions:
REMARK  status: ('A' for Active; 'I' for Inactive)
REMARK    1  A    between atoms: C_1  and  O_3 
REMARK    2  A    between atoms: C_1  and  C_4 
REMARK    3  A    between atoms: C_5  and  O_10 
ROOT
ATOM      1  C   UNL d   1       7.009 -11.478 -26.399  0.00  0.00     0.070 A 
ATOM      2  C   UNL d   1       7.995 -10.766 -25.703  0.00  0.00     0.082 A 
ATOM      3  C   UNL d   1       8.109 -10.885 -24.317  0.00  0.00     0.037 A 
ATOM      4  C   UNL d   1       7.235 -11.713 -23.613  0.00  0.00     0.003 A 
ATOM      5  C   UNL d   1       6.245 -12.420 -24.292  0.00  0.00     0.001 A 
ATOM      6  C   UNL d   1       6.133 -12.305 -25.680  0.00  0.00     0.021 A 
ENDROOT
BRANCH   1   7
ATOM      7  C   UNL d   1       6.833 -11.417 -27.871  0.00  0.00     0.178 C 
ATOM      8  O   UNL d   1       5.792 -11.580 -28.479  0.00  0.00    -0.646 OA
BRANCH   7   9
ATOM      9  O   UNL d   1       7.983 -11.158 -28.529  0.00  0.00    -0.773 OA
ATOM     10  H   UNL d   1       8.507 -10.655 -27.865  0.00  0.00     0.167 HD
ENDBRANCH   7   9
ENDBRANCH   1   7
BRANCH   2  11
ATOM     11  O   UNL d   1       8.893  -9.924 -26.301  0.00  0.00    -0.360 OA
ATOM     12  H   UNL d   1       8.438  -9.068 -26.448  0.00  0.00     0.217 HD
ENDBRANCH   2  11
TORSDOF 3
ENDMDL
MODEL 3
REMARK VINA RESULT:      -6.0      2.743      4.147
REMARK  3 active torsions:
REMARK  status: ('A' for Active; 'I' for Inactive)
REMARK    1  A    between atoms: C_1  and  O_3 
REMARK    2  A    between atoms: C_1  and  C_4 
REMARK    3  A    between atoms: C_5  and  O_10 
ROOT
ATOM      1  C   UNL d   1       7.431  -9.698 -24.630  0.00  0.00     0.070 A 
ATOM      2  C   UNL d   1       8.015  -9.983 -25.871  0.00  0.00     0.082 A 
ATOM      3  C   UNL d   1       7.490  -9.437 -27.043  0.00  0.00     0.037 A 
ATOM      4  C   UNL d   1       6.372  -8.605 -26.985  0.00  0.00     0.003 A 
ATOM      5  C   UNL d   1       5.777  -8.319 -25.758  0.00  0.00     0.001 A 
ATOM      6  C   UNL d   1       6.305  -8.862 -24.583  0.00  0.00     0.021 A 
ENDROOT
BRANCH   1   7
ATOM      7  C   UNL d   1       7.938 -10.227 -23.339  0.00  0.00     0.178 C 
ATOM      8  O   UNL d   1       8.316  -9.567 -22.390  0.00  0.00    -0.646 OA
BRANCH   7   9
ATOM      9  O   UNL d   1       7.956 -11.575 -23.293  0.00  0.00    -0.773 OA
ATOM     10  H   UNL d   1       7.000 -11.808 -23.285  0.00  0.00     0.167 HD
ENDBRANCH   7   9
ENDBRANCH   1   7
BRANCH   2  11
ATOM     11  O   UNL d   1       9.106 -10.793 -26.032  0.00  0.00    -0.360 OA
ATOM     12  H   UNL d   1       9.665 -10.395 -26.733  0.00  0.00     0.217 HD
ENDBRANCH   2  11
TORSDOF 3
ENDMDL
MODEL 4
REMARK VINA RESULT:      -5.9      0.930      2.650
REMARK  3 active torsions:
REMARK  status: ('A' for Active; 'I' for Inactive)
REMARK    1  A    between atoms: C_1  and  O_3 
REMARK    2  A    between atoms: C_1  and  C_4 
REMARK    3  A    between atoms: C_5  and  O_10 
ROOT
ATOM      1  C   UNL d   1       6.856 -10.487 -25.982  0.00  0.00     0.070 A 
ATOM      2  C   UNL d   1       7.856  -9.578 -26.353  0.00  0.00     0.082 A 
ATOM      3  C   UNL d   1       8.800  -9.145 -25.422  0.00  0.00     0.037 A 
ATOM      4  C   UNL d   1       8.750  -9.611 -24.108  0.00  0.00     0.003 A 
ATOM      5  C   UNL d   1       7.755 -10.508 -23.723  0.00  0.00     0.001 A 
ATOM      6  C   UNL d   1       6.812 -10.947 -24.657  0.00  0.00     0.021 A 
ENDROOT
BRANCH   1   7
ATOM      7  C   UNL d   1       5.827 -11.007 -26.916  0.00  0.00     0.178 C 
ATOM      8  O   UNL d   1       5.547 -10.549 -28.007  0.00  0.00    -0.646 OA
BRANCH   7   9
ATOM      9  O   UNL d   1       5.179 -12.090 -26.436  0.00  0.00    -0.773 OA
ATOM     10  H   UNL d   1       4.978 -11.832 -25.507  0.00  0.00     0.167 HD
ENDBRANCH   7   9
ENDBRANCH   1   7
BRANCH   2  11
ATOM     11  O   UNL d   1       7.984  -9.059 -27.613  0.00  0.00    -0.360 OA
ATOM     12  H   UNL d   1       8.585  -9.650 -28.113  0.00  0.00     0.217 HD
ENDBRANCH   2  11
TORSDOF 3
ENDMDL
MODEL 5
REMARK VINA RESULT:      -5.8      1.730      3.108
REMARK  3 active torsions:
REMARK  status: ('A' for Active; 'I' for Inactive)
REMARK    1  A    between atoms: C_1  and  O_3 
REMARK    2  A    between atoms: C_1  and  C_4 
REMARK    3  A    between atoms: C_5  and  O_10 
ROOT
ATOM      1  C   UNL d   1       7.044 -10.946 -25.244  0.00  0.00     0.070 A 
ATOM      2  C   UNL d   1       7.956 -10.957 -24.181  0.00  0.00     0.082 A 
ATOM      3  C   UNL d   1       8.978 -10.009 -24.114  0.00  0.00     0.037 A 
ATOM      4  C   UNL d   1       9.101  -9.044 -25.113  0.00  0.00     0.003 A 
ATOM      5  C   UNL d   1       8.205  -9.027 -26.181  0.00  0.00     0.001 A 
ATOM      6  C   UNL d   1       7.179  -9.973 -26.246  0.00  0.00     0.021 A 
ENDROOT
BRANCH   1   7
ATOM      7  C   UNL d   1       5.922 -11.909 -25.378  0.00  0.00     0.178 C 
ATOM      8  O   UNL d   1       5.257 -12.103 -26.377  0.00  0.00    -0.646 OA
BRANCH   7   9
ATOM      9  O   UNL d   1       5.675 -12.591 -24.240  0.00  0.00    -0.773 OA
ATOM     10  H   UNL d   1       4.738 -12.872 -24.352  0.00  0.00     0.167 HD
ENDBRANCH   7   9
ENDBRANCH   1   7
BRANCH   2  11
ATOM     11  O   UNL d   1       7.924 -11.866 -23.158  0.00  0.00    -0.360 OA
ATOM     12  H   UNL d   1       8.398 -11.468 -22.398  0.00  0.00     0.217 HD
ENDBRANCH   2  11
TORSDOF 3
ENDMDL
MODEL 6
REMARK VINA RESULT:      -5.8      2.217      3.194
REMARK  3 active torsions:
REMARK  status: ('A' for Active; 'I' for Inactive)
REMARK    1  A    between atoms: C_1  and  O_3 
REMARK    2  A    between atoms: C_1  and  C_4 
REMARK    3  A    between atoms: C_5  and  O_10 
ROOT
ATOM      1  C   UNL d   1       6.566  -9.983 -26.376  0.00  0.00     0.070 A 
ATOM      2  C   UNL d   1       7.292 -10.345 -27.518  0.00  0.00     0.082 A 
ATOM      3  C   UNL d   1       7.348 -11.678 -27.929  0.00  0.00     0.037 A 
ATOM      4  C   UNL d   1       6.684 -12.662 -27.198  0.00  0.00     0.003 A 
ATOM      5  C   UNL d   1       5.965 -12.317 -26.055  0.00  0.00     0.001 A 
ATOM      6  C   UNL d   1       5.904 -10.982 -25.646  0.00  0.00     0.021 A 
ENDROOT
BRANCH   1   7
ATOM      7  C   UNL d   1       6.444  -8.588 -25.884  0.00  0.00     0.178 C 
ATOM      8  O   UNL d   1       6.399  -8.238 -24.720  0.00  0.00    -0.646 OA
BRANCH   7   9
ATOM      9  O   UNL d   1       6.378  -7.682 -26.881  0.00  0.00    -0.773 OA
ATOM     10  H   UNL d   1       5.412  -7.620 -27.059  0.00  0.00     0.167 HD
ENDBRANCH   7   9
ENDBRANCH   1   7
BRANCH   2  11
ATOM     11  O   UNL d   1       7.982  -9.455 -28.296  0.00  0.00    -0.360 OA
ATOM     12  H   UNL d   1       8.750  -9.933 -28.675  0.00  0.00     0.217 HD
ENDBRANCH   2  11
TORSDOF 3
ENDMDL
MODEL 7
REMARK VINA RESULT:      -5.7      2.508      3.792
REMARK  3 active torsions:
REMARK  status: ('A' for Active; 'I' for Inactive)
REMARK    1  A    between atoms: C_1  and  O_3 
REMARK    2  A    between atoms: C_1  and  C_4 
REMARK    3  A    between atoms: C_5  and  O_10 
ROOT
ATOM      1  C   UNL d   1       7.827  -9.179 -25.714  0.00  0.00     0.070 A 
ATOM      2  C   UNL d   1       7.279  -9.043 -26.996  0.00  0.00     0.082 A 
ATOM      3  C   UNL d   1       5.958  -8.624 -27.161  0.00  0.00     0.037 A 
ATOM      4  C   UNL d   1       5.171  -8.342 -26.045  0.00  0.00     0.003 A 
ATOM      5  C   UNL d   1       5.701  -8.481 -24.763  0.00  0.00     0.001 A 
ATOM      6  C   UNL d   1       7.025  -8.897 -24.598  0.00  0.00     0.021 A 
ENDROOT
BRANCH   1   7
ATOM      7  C   UNL d   1       9.226  -9.605 -25.456  0.00  0.00     0.178 C 
ATOM      8  O   UNL d   1      10.069  -8.974 -24.848  0.00  0.00    -0.646 OA
BRANCH   7   9
ATOM      9  O   UNL d   1       9.514 -10.814 -25.982  0.00  0.00    -0.773 OA
ATOM     10  H   UNL d   1      10.437 -10.699 -26.305  0.00  0.00     0.167 HD
ENDBRANCH   7   9
ENDBRANCH   1   7
BRANCH   2  11
ATOM     11  O   UNL d   1       7.967  -9.302 -28.151  0.00  0.00    -0.360 OA
ATOM     12  H   UNL d   1       8.918  -9.155 -27.964  0.00  0.00     0.217 HD
ENDBRANCH   2  11
TORSDOF 3
ENDMDL
MODEL 8
REMARK VINA RESULT:      -5.7      2.208      3.057
REMARK  3 active torsions:
REMARK  status: ('A' for Active; 'I' for Inactive)
REMARK    1  A    between atoms: C_1  and  O_3 
REMARK    2  A    between atoms: C_1  and  C_4 
REMARK    3  A    between atoms: C_5  and  O_10 
ROOT
ATOM      1  C   UNL d   1       8.005 -10.407 -25.262  0.00  0.00     0.070 A 
ATOM      2  C   UNL d   1       7.524 -10.911 -24.046  0.00  0.00     0.082 A 
ATOM      3  C   UNL d   1       6.632 -11.984 -24.028  0.00  0.00     0.037 A 
ATOM      4  C   UNL d   1       6.208 -12.560 -25.224  0.00  0.00     0.003 A 
ATOM      5  C   UNL d   1       6.672 -12.063 -26.441  0.00  0.00     0.001 A 
ATOM      6  C   UNL d   1       7.569 -10.992 -26.461  0.00  0.00     0.021 A 
ENDROOT
BRANCH   1   7
ATOM      7  C   UNL d   1       8.966  -9.281 -25.365  0.00  0.00     0.178 C 
ATOM      8  O   UNL d   1       9.740  -8.914 -24.502  0.00  0.00    -0.646 OA
BRANCH   7   9
ATOM      9  O   UNL d   1       8.913  -8.650 -26.557  0.00  0.00    -0.773 OA
ATOM     10  H   UNL d   1       9.800  -8.832 -26.943  0.00  0.00     0.167 HD
ENDBRANCH   7   9
ENDBRANCH   1   7
BRANCH   2  11
ATOM     11  O   UNL d   1       7.875 -10.410 -22.822  0.00  0.00    -0.360 OA
ATOM     12  H   UNL d   1       7.533  -9.492 -22.773  0.00  0.00     0.217 HD
ENDBRANCH   2  11
TORSDOF 3
ENDMDL
MODEL 9
REMARK VINA RESULT:      -5.6      1.496      2.025
REMARK  3 active torsions:
REMARK  status: ('A' for Active; 'I' for Inactive)
REMARK    1  A    between atoms: C_1  and  O_3 
REMARK    2  A    between atoms: C_1  and  C_4 
REMARK    3  A    between atoms: C_5  and  O_10 
ROOT
ATOM      1  C   UNL d   1       7.461 -10.305 -26.157  0.00  0.00     0.070 A 
ATOM      2  C   UNL d   1       6.926  -9.237 -25.424  0.00  0.00     0.082 A 
ATOM      3  C   UNL d   1       6.990  -9.233 -24.030  0.00  0.00     0.037 A 
ATOM      4  C   UNL d   1       7.583 -10.299 -23.355  0.00  0.00     0.003 A 
ATOM      5  C   UNL d   1       8.111 -11.371 -24.071  0.00  0.00     0.001 A 
ATOM      6  C   UNL d   1       8.053 -11.374 -25.467  0.00  0.00     0.021 A 
ENDROOT
BRANCH   1   7
ATOM      7  C   UNL d   1       7.448 -10.377 -27.639  0.00  0.00     0.178 C 
ATOM      8  O   UNL d   1       7.064 -11.316 -28.310  0.00  0.00    -0.646 OA
BRANCH   7   9
ATOM      9  O   UNL d   1       7.926  -9.260 -28.225  0.00  0.00    -0.773 OA
ATOM     10  H   UNL d   1       8.506  -8.877 -27.528  0.00  0.00     0.167 HD
ENDBRANCH   7   9
ENDBRANCH   1   7
BRANCH   2  11
ATOM     11  O   UNL d   1       6.319  -8.151 -25.994  0.00  0.00    -0.360 OA
ATOM     12  H   UNL d   1       5.597  -7.871 -25.392  0.00  0.00     0.217 HD
ENDBRANCH   2  11
TORSDOF 3
ENDMDL
