REMARK  3 active torsions:
REMARK  status: ('A' for Active; 'I' for Inactive)
REMARK    1  A    between atoms: C_1  and  O_3 
REMARK    2  A    between atoms: C_1  and  C_4 
REMARK    3  A    between atoms: C_5  and  O_10 
ROOT
ATOM      1  C   UNL d   1       2.404   0.014   0.023  0.00  0.00     0.070 A 
ATOM      2  C   UNL d   1       3.132  -1.183   0.039  0.00  0.00     0.082 A 
ATOM      3  C   UNL d   1       4.527  -1.163   0.065  0.00  0.00     0.037 A 
ATOM      4  C   UNL d   1       5.208   0.054   0.069  0.00  0.00     0.003 A 
ATOM      5  C   UNL d   1       4.496   1.252   0.045  0.00  0.00     0.001 A 
ATOM      6  C   UNL d   1       3.099   1.233   0.024  0.00  0.00     0.021 A 
ENDROOT
BRANCH   1   7
ATOM      7  C   UNL d   1       0.921   0.077   0.011  0.00  0.00     0.178 C 
ATOM      8  O   UNL d   1       0.244   1.087  -0.003  0.00  0.00    -0.646 OA
BRANCH   7   9
ATOM      9  O   UNL d   1       0.342  -1.142   0.023  0.00  0.00    -0.773 OA
ATOM     10  H   UNL d   1      -0.619  -0.929   0.027  0.00  0.00     0.167 HD
ENDBRANCH   7   9
ENDBRANCH   1   7
BRANCH   2  11
ATOM     11  O   UNL d   1       2.557  -2.425   0.029  0.00  0.00    -0.360 OA
ATOM     12  H   UNL d   1       1.585  -2.297   0.003  0.00  0.00     0.217 HD
ENDBRANCH   2  11
TORSDOF 3
