@<TRIPOS>MOLECULE
SAL
 16 16 0 0 0
SMALL
GASTEIGER

@<TRIPOS>ATOM
      1 C           0.9210    0.0773    0.0106 C.2     1  UNL1        0.3404
      2 O           0.2442    1.0875   -0.0032 O.2     1  UNL1       -0.2450
      3 O           0.3419   -1.1420    0.0233 O.3     1  UNL1       -0.4770
      4 C           2.4035    0.0138    0.0228 C.ar    1  UNL1        0.1001
      5 C           3.1322   -1.1834    0.0389 C.ar    1  UNL1        0.1308
      6 C           4.5266   -1.1625    0.0648 C.ar    1  UNL1       -0.0194
      7 C           5.2081    0.0543    0.0687 C.ar    1  UNL1       -0.0583
      8 C           4.4956    1.2521    0.0454 C.ar    1  UNL1       -0.0608
      9 C           3.0985    1.2333    0.0240 C.ar    1  UNL1       -0.0442
     10 O           2.5565   -2.4250    0.0292 O.3     1  UNL1       -0.5059
     11 H          -0.6187   -0.9293    0.0274 H       1  UNL1        0.2954
     12 H           5.0807   -2.0975    0.0823 H       1  UNL1        0.0654
     13 H           6.2952    0.0659    0.0892 H       1  UNL1        0.0619
     14 H           5.0272    2.2008    0.0459 H       1  UNL1        0.0618
     15 H           2.5544    2.1762    0.0093 H       1  UNL1        0.0627
     16 H           1.5847   -2.2970    0.0028 H       1  UNL1        0.2922
@<TRIPOS>BOND
     1     1     2    2
     2     1     3    1
     3     1     4    1
     4     3    11    1
     5     4     5   ar
     6     4     9   ar
     7     5     6   ar
     8     5    10    1
     9     6     7   ar
    10     6    12    1
    11     7     8   ar
    12     7    13    1
    13     8     9   ar
    14     8    14    1
    15     9    15    1
    16    10    16    1
