MODEL 1
REMARK VINA RESULT:      -7.5      0.000      0.000
REMARK  10 active torsions:
REMARK  status: ('A' for Active; 'I' for Inactive)
REMARK    1  A    between atoms: O_4  and  C_21 
REMARK    2  A    between atoms: O_4  and  C_26 
REMARK    3  A    between atoms: O_5  and  C_22 
REMARK    4  A    between atoms: O_8  and  N_12 
REMARK    5  A    between atoms: CA_16  and  N_11 
REMARK       I    between atoms: N_11  and  C_23 
REMARK    6  A    between atoms: N_14  and  C_29 
REMARK    7  A    between atoms: CA_18  and  C_22 
REMARK    8  A    between atoms: C_19  and  C_21 
REMARK    9  A    between atoms: C_23  and  C_24 
REMARK   10  A    between atoms: C_24  and  C_25 
ROOT
ATOM      1  S   UNL d   1      38.449  -9.591  -1.953  0.00  0.00    -0.136 SA
ATOM      2  O   UNL d   1      41.806  -7.311  -2.791  0.00  0.00    -0.271 OA
ATOM      3  N   UNL d   1      39.582  -7.189  -2.115  0.00  0.00    -0.293 N 
ATOM      4  C   UNL d   1      38.610  -8.008  -2.837  0.00  0.00     0.187 C 
ATOM      5  CA  UNL d   1      39.619  -7.940  -4.041  0.00  0.00     0.211 C 
ATOM      6  C   UNL d   1      40.626  -7.489  -2.939  0.00  0.00     0.251 C 
ATOM      7  CA  UNL d   1      39.546  -6.959  -0.756  0.00  0.00     0.117 C 
ATOM      8  C   UNL d   1      38.728  -7.686   0.063  0.00  0.00    -0.013 C 
ATOM      9  C   UNL d   1      37.836  -8.806  -0.425  0.00  0.00     0.115 C 
ENDROOT
BRANCH   5  10
ATOM     10  N   UNL d   1      39.767  -9.168  -4.900  0.00  0.00    -0.339 N 
ATOM     11  C   UNL d   1      39.010  -9.194  -6.069  0.00  0.00     0.275 C 
ATOM     12  O   UNL d   1      39.066 -10.170  -6.819  0.00  0.00    -0.266 OA
ATOM     13  H   UNL d   1      40.505  -9.854  -4.777  0.00  0.00     0.163 HD
BRANCH  11  14
ATOM     14  C   UNL d   1      38.110  -8.025  -6.485  0.00  0.00     0.180 C 
ATOM     15  N   UNL d   1      38.382  -7.005  -7.241  0.00  0.00    -0.126 NA
BRANCH  15  16
ATOM     16  O   UNL d   1      39.666  -6.934  -7.782  0.00  0.00    -0.261 OA
ATOM     17  C   UNL d   1      39.560  -7.417  -9.134  0.00  0.00     0.240 C 
ENDBRANCH  15  16
BRANCH  14  18
ATOM     18  C   UNL d   1      36.781  -7.959  -5.857  0.00  0.00     0.102 A 
ATOM     19  N   UNL d   1      36.307  -8.975  -5.036  0.00  0.00    -0.222 NA
ATOM     20  C   UNL d   1      35.176  -8.622  -4.481  0.00  0.00     0.164 A 
ATOM     21  S   UNL d   1      34.551  -7.103  -4.973  0.00  0.00    -0.062 SA
ATOM     22  C   UNL d   1      35.922  -6.876  -5.971  0.00  0.00     0.087 A 
BRANCH  20  23
ATOM     23  N   UNL d   1      34.535  -9.386  -3.587  0.00  0.00    -0.378 N 
ATOM     24  H   UNL d   1      34.231 -10.312  -3.856  0.00  0.00     0.158 HD
ATOM     25  H   UNL d   1      34.819  -9.282  -2.621  0.00  0.00     0.158 HD
ENDBRANCH  20  23
ENDBRANCH  14  18
ENDBRANCH  11  14
ENDBRANCH   5  10
BRANCH   7  26
ATOM     26  C   UNL d   1      40.337  -5.781  -0.212  0.00  0.00     0.194 C 
ATOM     27  OXT UNL d   1      39.821  -4.721   0.118  0.00  0.00    -0.645 OA
BRANCH  26  28
ATOM     28  O   UNL d   1      41.672  -5.921  -0.257  0.00  0.00    -0.772 OA
ATOM     29  H   UNL d   1      42.180  -5.089  -0.361  0.00  0.00     0.167 HD
ENDBRANCH  26  28
ENDBRANCH   7  26
BRANCH   8  30
ATOM     30  C   UNL d   1      38.670  -7.507   1.573  0.00  0.00     0.216 C 
BRANCH  30  31
ATOM     31  O   UNL d   1      37.331  -7.189   1.985  0.00  0.00    -0.317 OA
BRANCH  31  32
ATOM     32  C   UNL d   1      36.955  -7.640   3.211  0.00  0.00     0.255 C 
ATOM     33  O   UNL d   1      36.450  -6.963   4.093  0.00  0.00    -0.266 OA
ATOM     34  C   UNL d   1      37.235  -9.107   3.325  0.00  0.00     0.126 C 
ENDBRANCH  31  32
ENDBRANCH  30  31
ENDBRANCH   8  30
TORSDOF 10
ENDMDL
MODEL 2
REMARK VINA RESULT:      -7.3      2.047      2.563
REMARK  10 active torsions:
REMARK  status: ('A' for Active; 'I' for Inactive)
REMARK    1  A    between atoms: O_4  and  C_21 
REMARK    2  A    between atoms: O_4  and  C_26 
REMARK    3  A    between atoms: O_5  and  C_22 
REMARK    4  A    between atoms: O_8  and  N_12 
REMARK    5  A    between atoms: CA_16  and  N_11 
REMARK       I    between atoms: N_11  and  C_23 
REMARK    6  A    between atoms: N_14  and  C_29 
REMARK    7  A    between atoms: CA_18  and  C_22 
REMARK    8  A    between atoms: C_19  and  C_21 
REMARK    9  A    between atoms: C_23  and  C_24 
REMARK   10  A    between atoms: C_24  and  C_25 
ROOT
ATOM      1  S   UNL d   1      37.505  -8.460  -3.000  0.00  0.00    -0.136 SA
ATOM      2  O   UNL d   1      41.591  -8.665  -2.343  0.00  0.00    -0.271 OA
ATOM      3  N   UNL d   1      39.808  -7.190  -2.593  0.00  0.00    -0.293 N 
ATOM      4  C   UNL d   1      38.861  -7.451  -3.675  0.00  0.00     0.187 C 
ATOM      5  CA  UNL d   1      40.050  -8.199  -4.381  0.00  0.00     0.211 C 
ATOM      6  C   UNL d   1      40.675  -8.179  -2.952  0.00  0.00     0.251 C 
ATOM      7  CA  UNL d   1      39.451  -6.714  -1.349  0.00  0.00     0.117 C 
ATOM      8  C   UNL d   1      38.144  -6.679  -0.952  0.00  0.00    -0.013 C 
ATOM      9  C   UNL d   1      36.997  -7.181  -1.803  0.00  0.00     0.115 C 
ENDROOT
BRANCH   5  10
ATOM     10  N   UNL d   1      39.727  -9.442  -5.167  0.00  0.00    -0.339 N 
ATOM     11  C   UNL d   1      39.707  -9.303  -6.553  0.00  0.00     0.275 C 
ATOM     12  O   UNL d   1      39.438 -10.270  -7.267  0.00  0.00    -0.266 OA
ATOM     13  H   UNL d   1      39.721 -10.374  -4.767  0.00  0.00     0.163 HD
BRANCH  11  14
ATOM     14  C   UNL d   1      40.036  -7.974  -7.245  0.00  0.00     0.180 C 
ATOM     15  N   UNL d   1      41.173  -7.354  -7.337  0.00  0.00    -0.126 NA
BRANCH  15  16
ATOM     16  O   UNL d   1      42.281  -7.957  -6.742  0.00  0.00    -0.261 OA
ATOM     17  C   UNL d   1      43.137  -8.378  -7.820  0.00  0.00     0.240 C 
ENDBRANCH  15  16
BRANCH  14  18
ATOM     18  C   UNL d   1      38.899  -7.214  -7.788  0.00  0.00     0.102 A 
ATOM     19  N   UNL d   1      37.967  -6.597  -6.962  0.00  0.00    -0.222 NA
ATOM     20  C   UNL d   1      37.148  -5.863  -7.669  0.00  0.00     0.164 A 
ATOM     21  S   UNL d   1      37.365  -5.934  -9.368  0.00  0.00    -0.062 SA
ATOM     22  C   UNL d   1      38.691  -6.992  -9.141  0.00  0.00     0.087 A 
BRANCH  20  23
ATOM     23  N   UNL d   1      36.193  -5.103  -7.118  0.00  0.00    -0.378 N 
ATOM     24  H   UNL d   1      35.962  -4.214  -7.542  0.00  0.00     0.158 HD
ATOM     25  H   UNL d   1      35.421  -5.595  -6.686  0.00  0.00     0.158 HD
ENDBRANCH  20  23
ENDBRANCH  14  18
ENDBRANCH  11  14
ENDBRANCH   5  10
BRANCH   7  26
ATOM     26  C   UNL d   1      40.538  -6.099  -0.483  0.00  0.00     0.194 C 
ATOM     27  OXT UNL d   1      40.697  -4.891  -0.362  0.00  0.00    -0.645 OA
BRANCH  26  28
ATOM     28  O   UNL d   1      41.422  -6.971   0.028  0.00  0.00    -0.772 OA
ATOM     29  H   UNL d   1      41.277  -7.218   0.966  0.00  0.00     0.167 HD
ENDBRANCH  26  28
ENDBRANCH   7  26
BRANCH   8  30
ATOM     30  C   UNL d   1      37.689  -6.202   0.419  0.00  0.00     0.216 C 
BRANCH  30  31
ATOM     31  O   UNL d   1      37.232  -7.312   1.208  0.00  0.00    -0.317 OA
BRANCH  31  32
ATOM     32  C   UNL d   1      38.068  -7.737   2.191  0.00  0.00     0.255 C 
ATOM     33  O   UNL d   1      39.255  -7.465   2.282  0.00  0.00    -0.266 OA
ATOM     34  C   UNL d   1      37.316  -8.584   3.172  0.00  0.00     0.126 C 
ENDBRANCH  31  32
ENDBRANCH  30  31
ENDBRANCH   8  30
TORSDOF 10
ENDMDL
MODEL 3
REMARK VINA RESULT:      -7.2      2.807      8.300
REMARK  10 active torsions:
REMARK  status: ('A' for Active; 'I' for Inactive)
REMARK    1  A    between atoms: O_4  and  C_21 
REMARK    2  A    between atoms: O_4  and  C_26 
REMARK    3  A    between atoms: O_5  and  C_22 
REMARK    4  A    between atoms: O_8  and  N_12 
REMARK    5  A    between atoms: CA_16  and  N_11 
REMARK       I    between atoms: N_11  and  C_23 
REMARK    6  A    between atoms: N_14  and  C_29 
REMARK    7  A    between atoms: CA_18  and  C_22 
REMARK    8  A    between atoms: C_19  and  C_21 
REMARK    9  A    between atoms: C_23  and  C_24 
REMARK   10  A    between atoms: C_24  and  C_25 
ROOT
ATOM      1  S   UNL d   1      39.211  -9.322  -5.311  0.00  0.00    -0.136 SA
ATOM      2  O   UNL d   1      35.473  -7.791  -4.388  0.00  0.00    -0.271 OA
ATOM      3  N   UNL d   1      37.550  -7.243  -5.285  0.00  0.00    -0.293 N 
ATOM      4  C   UNL d   1      38.738  -7.723  -4.582  0.00  0.00     0.187 C 
ATOM      5  CA  UNL d   1      37.830  -7.742  -3.298  0.00  0.00     0.211 C 
ATOM      6  C   UNL d   1      36.669  -7.673  -4.338  0.00  0.00     0.251 C 
ATOM      7  CA  UNL d   1      37.435  -7.179  -6.658  0.00  0.00     0.117 C 
ATOM      8  C   UNL d   1      38.343  -7.792  -7.474  0.00  0.00    -0.013 C 
ATOM      9  C   UNL d   1      39.510  -8.609  -6.963  0.00  0.00     0.115 C 
ENDROOT
BRANCH   5  10
ATOM     10  N   UNL d   1      38.040  -8.858  -2.309  0.00  0.00    -0.339 N 
ATOM     11  C   UNL d   1      38.974  -8.618  -1.303  0.00  0.00     0.275 C 
ATOM     12  O   UNL d   1      39.213  -9.485  -0.462  0.00  0.00    -0.266 OA
ATOM     13  H   UNL d   1      37.422  -9.658  -2.224  0.00  0.00     0.163 HD
BRANCH  11  14
ATOM     14  C   UNL d   1      39.716  -7.281  -1.181  0.00  0.00     0.180 C 
ATOM     15  N   UNL d   1      39.235  -6.086  -1.015  0.00  0.00    -0.126 NA
BRANCH  15  16
ATOM     16  O   UNL d   1      37.849  -5.960  -0.920  0.00  0.00    -0.261 OA
ATOM     17  C   UNL d   1      37.532  -6.058   0.481  0.00  0.00     0.240 C 
ENDBRANCH  15  16
BRANCH  14  18
ATOM     18  C   UNL d   1      41.170  -7.311  -1.396  0.00  0.00     0.102 A 
ATOM     19  N   UNL d   1      42.046  -6.591  -0.593  0.00  0.00    -0.222 NA
ATOM     20  C   UNL d   1      43.285  -6.896  -0.882  0.00  0.00     0.164 A 
ATOM     21  S   UNL d   1      43.495  -7.982  -2.192  0.00  0.00    -0.062 SA
ATOM     22  C   UNL d   1      41.795  -8.092  -2.357  0.00  0.00     0.087 A 
BRANCH  20  23
ATOM     23  N   UNL d   1      44.332  -6.400  -0.210  0.00  0.00    -0.378 N 
ATOM     24  H   UNL d   1      45.198  -6.921  -0.189  0.00  0.00     0.158 HD
ATOM     25  H   UNL d   1      44.428  -5.392  -0.211  0.00  0.00     0.158 HD
ENDBRANCH  20  23
ENDBRANCH  14  18
ENDBRANCH  11  14
ENDBRANCH   5  10
BRANCH   7  26
ATOM     26  C   UNL d   1      36.348  -6.290  -7.240  0.00  0.00     0.194 C 
ATOM     27  OXT UNL d   1      36.475  -5.080  -7.382  0.00  0.00    -0.645 OA
BRANCH  26  28
ATOM     28  O   UNL d   1      35.168  -6.895  -7.451  0.00  0.00    -0.772 OA
ATOM     29  H   UNL d   1      34.581  -6.960  -6.669  0.00  0.00     0.167 HD
ENDBRANCH  26  28
ENDBRANCH   7  26
BRANCH   8  30
ATOM     30  C   UNL d   1      38.251  -7.789  -8.993  0.00  0.00     0.216 C 
BRANCH  30  31
ATOM     31  O   UNL d   1      38.927  -6.642  -9.531  0.00  0.00    -0.317 OA
BRANCH  31  32
ATOM     32  C   UNL d   1      38.215  -5.874 -10.397  0.00  0.00     0.255 C 
ATOM     33  O   UNL d   1      38.518  -4.751 -10.767  0.00  0.00    -0.266 OA
ATOM     34  C   UNL d   1      36.997  -6.617 -10.856  0.00  0.00     0.126 C 
ENDBRANCH  31  32
ENDBRANCH  30  31
ENDBRANCH   8  30
TORSDOF 10
ENDMDL
MODEL 4
REMARK VINA RESULT:      -6.9      3.122      8.083
REMARK  10 active torsions:
REMARK  status: ('A' for Active; 'I' for Inactive)
REMARK    1  A    between atoms: O_4  and  C_21 
REMARK    2  A    between atoms: O_4  and  C_26 
REMARK    3  A    between atoms: O_5  and  C_22 
REMARK    4  A    between atoms: O_8  and  N_12 
REMARK    5  A    between atoms: CA_16  and  N_11 
REMARK       I    between atoms: N_11  and  C_23 
REMARK    6  A    between atoms: N_14  and  C_29 
REMARK    7  A    between atoms: CA_18  and  C_22 
REMARK    8  A    between atoms: C_19  and  C_21 
REMARK    9  A    between atoms: C_23  and  C_24 
REMARK   10  A    between atoms: C_24  and  C_25 
ROOT
ATOM      1  S   UNL d   1      39.980  -8.858  -6.755  0.00  0.00    -0.136 SA
ATOM      2  O   UNL d   1      36.209  -8.603  -5.060  0.00  0.00    -0.271 OA
ATOM      3  N   UNL d   1      37.951  -7.340  -5.946  0.00  0.00    -0.293 N 
ATOM      4  C   UNL d   1      39.311  -7.684  -5.537  0.00  0.00     0.187 C 
ATOM      5  CA  UNL d   1      38.649  -8.272  -4.238  0.00  0.00     0.211 C 
ATOM      6  C   UNL d   1      37.345  -8.212  -5.091  0.00  0.00     0.251 C 
ATOM      7  CA  UNL d   1      37.602  -6.937  -7.218  0.00  0.00     0.117 C 
ATOM      8  C   UNL d   1      38.472  -7.064  -8.264  0.00  0.00    -0.013 C 
ATOM      9  C   UNL d   1      39.850  -7.675  -8.137  0.00  0.00     0.115 C 
ENDROOT
BRANCH   5  10
ATOM     10  N   UNL d   1      39.246  -9.526  -3.654  0.00  0.00    -0.339 N 
ATOM     11  C   UNL d   1      40.061  -9.355  -2.537  0.00  0.00     0.275 C 
ATOM     12  O   UNL d   1      40.597 -10.330  -2.009  0.00  0.00    -0.266 OA
ATOM     13  H   UNL d   1      38.939 -10.461  -3.900  0.00  0.00     0.163 HD
BRANCH  11  14
ATOM     14  C   UNL d   1      40.305  -7.978  -1.908  0.00  0.00     0.180 C 
ATOM     15  N   UNL d   1      41.301  -7.162  -2.075  0.00  0.00    -0.126 NA
BRANCH  15  16
ATOM     16  O   UNL d   1      42.310  -7.556  -2.955  0.00  0.00    -0.261 OA
ATOM     17  C   UNL d   1      43.407  -8.002  -2.136  0.00  0.00     0.240 C 
ENDBRANCH  15  16
BRANCH  14  18
ATOM     18  C   UNL d   1      39.352  -7.547  -0.874  0.00  0.00     0.102 A 
ATOM     19  N   UNL d   1      39.317  -8.135   0.384  0.00  0.00    -0.222 NA
ATOM     20  C   UNL d   1      38.497  -7.484   1.169  0.00  0.00     0.164 A 
ATOM     21  S   UNL d   1      37.639  -6.193   0.438  0.00  0.00    -0.062 SA
ATOM     22  C   UNL d   1      38.462  -6.495  -1.032  0.00  0.00     0.087 A 
BRANCH  20  23
ATOM     23  N   UNL d   1      38.325  -7.796   2.460  0.00  0.00    -0.378 N 
ATOM     24  H   UNL d   1      37.430  -7.621   2.896  0.00  0.00     0.158 HD
ATOM     25  H   UNL d   1      38.823  -8.612   2.795  0.00  0.00     0.158 HD
ENDBRANCH  20  23
ENDBRANCH  14  18
ENDBRANCH  11  14
ENDBRANCH   5  10
BRANCH   7  26
ATOM     26  C   UNL d   1      36.274  -6.220  -7.398  0.00  0.00     0.194 C 
ATOM     27  OXT UNL d   1      35.308  -6.726  -7.954  0.00  0.00    -0.645 OA
BRANCH  26  28
ATOM     28  O   UNL d   1      36.271  -4.926  -7.040  0.00  0.00    -0.772 OA
ATOM     29  H   UNL d   1      35.629  -4.682  -6.340  0.00  0.00     0.167 HD
ENDBRANCH  26  28
ENDBRANCH   7  26
BRANCH   8  30
ATOM     30  C   UNL d   1      38.134  -6.674  -9.695  0.00  0.00     0.216 C 
BRANCH  30  31
ATOM     31  O   UNL d   1      38.404  -5.279  -9.909  0.00  0.00    -0.317 OA
BRANCH  31  32
ATOM     32  C   UNL d   1      38.569  -4.888 -11.199  0.00  0.00     0.255 C 
ATOM     33  O   UNL d   1      39.182  -3.899 -11.570  0.00  0.00    -0.266 OA
ATOM     34  C   UNL d   1      37.900  -5.863 -12.119  0.00  0.00     0.126 C 
ENDBRANCH  31  32
ENDBRANCH  30  31
ENDBRANCH   8  30
TORSDOF 10
ENDMDL
MODEL 5
REMARK VINA RESULT:      -6.8      3.221      7.485
REMARK  10 active torsions:
REMARK  status: ('A' for Active; 'I' for Inactive)
REMARK    1  A    between atoms: O_4  and  C_21 
REMARK    2  A    between atoms: O_4  and  C_26 
REMARK    3  A    between atoms: O_5  and  C_22 
REMARK    4  A    between atoms: O_8  and  N_12 
REMARK    5  A    between atoms: CA_16  and  N_11 
REMARK       I    between atoms: N_11  and  C_23 
REMARK    6  A    between atoms: N_14  and  C_29 
REMARK    7  A    between atoms: CA_18  and  C_22 
REMARK    8  A    between atoms: C_19  and  C_21 
REMARK    9  A    between atoms: C_23  and  C_24 
REMARK   10  A    between atoms: C_24  and  C_25 
ROOT
ATOM      1  S   UNL d   1      38.872  -8.670  -6.530  0.00  0.00    -0.136 SA
ATOM      2  O   UNL d   1      36.499  -8.817  -3.137  0.00  0.00    -0.271 OA
ATOM      3  N   UNL d   1      37.494  -7.368  -4.663  0.00  0.00    -0.293 N 
ATOM      4  C   UNL d   1      38.882  -7.630  -5.037  0.00  0.00     0.187 C 
ATOM      5  CA  UNL d   1      39.002  -8.349  -3.644  0.00  0.00     0.211 C 
ATOM      6  C   UNL d   1      37.443  -8.337  -3.706  0.00  0.00     0.251 C 
ATOM      7  CA  UNL d   1      36.528  -6.915  -5.536  0.00  0.00     0.117 C 
ATOM      8  C   UNL d   1      36.741  -6.907  -6.886  0.00  0.00    -0.013 C 
ATOM      9  C   UNL d   1      38.010  -7.416  -7.536  0.00  0.00     0.115 C 
ENDROOT
BRANCH   5  10
ATOM     10  N   UNL d   1      39.857  -9.587  -3.566  0.00  0.00    -0.339 N 
ATOM     11  C   UNL d   1      41.034  -9.474  -2.829  0.00  0.00     0.275 C 
ATOM     12  O   UNL d   1      41.794 -10.437  -2.729  0.00  0.00    -0.266 OA
ATOM     13  H   UNL d   1      39.536 -10.509  -3.841  0.00  0.00     0.163 HD
BRANCH  11  14
ATOM     14  C   UNL d   1      41.421  -8.180  -2.102  0.00  0.00     0.180 C 
ATOM     15  N   UNL d   1      42.514  -7.484  -2.187  0.00  0.00    -0.126 NA
BRANCH  15  16
ATOM     16  O   UNL d   1      43.498  -7.942  -3.064  0.00  0.00    -0.261 OA
ATOM     17  C   UNL d   1      44.621  -8.319  -2.246  0.00  0.00     0.240 C 
ENDBRANCH  15  16
BRANCH  14  18
ATOM     18  C   UNL d   1      40.491  -7.700  -1.068  0.00  0.00     0.102 A 
ATOM     19  N   UNL d   1      39.800  -8.576  -0.240  0.00  0.00    -0.222 NA
ATOM     20  C   UNL d   1      39.159  -7.914   0.689  0.00  0.00     0.164 A 
ATOM     21  S   UNL d   1      39.252  -6.205   0.581  0.00  0.00    -0.062 SA
ATOM     22  C   UNL d   1      40.269  -6.361  -0.787  0.00  0.00     0.087 A 
BRANCH  20  23
ATOM     23  N   UNL d   1      38.467  -8.516   1.665  0.00  0.00    -0.378 N 
ATOM     24  H   UNL d   1      38.201  -9.486   1.557  0.00  0.00     0.158 HD
ATOM     25  H   UNL d   1      38.679  -8.224   2.611  0.00  0.00     0.158 HD
ENDBRANCH  20  23
ENDBRANCH  14  18
ENDBRANCH  11  14
ENDBRANCH   5  10
BRANCH   7  26
ATOM     26  C   UNL d   1      35.272  -6.294  -4.948  0.00  0.00     0.194 C 
ATOM     27  OXT UNL d   1      34.175  -6.838  -4.979  0.00  0.00    -0.645 OA
BRANCH  26  28
ATOM     28  O   UNL d   1      35.407  -5.028  -4.521  0.00  0.00    -0.772 OA
ATOM     29  H   UNL d   1      35.124  -4.861  -3.596  0.00  0.00     0.167 HD
ENDBRANCH  26  28
ENDBRANCH   7  26
BRANCH   8  30
ATOM     30  C   UNL d   1      35.704  -6.455  -7.903  0.00  0.00     0.216 C 
BRANCH  30  31
ATOM     31  O   UNL d   1      35.162  -7.589  -8.599  0.00  0.00    -0.317 OA
BRANCH  31  32
ATOM     32  C   UNL d   1      35.219  -7.546  -9.956  0.00  0.00     0.255 C 
ATOM     33  O   UNL d   1      35.756  -6.672 -10.618  0.00  0.00    -0.266 OA
ATOM     34  C   UNL d   1      34.537  -8.748 -10.535  0.00  0.00     0.126 C 
ENDBRANCH  31  32
ENDBRANCH  30  31
ENDBRANCH   8  30
TORSDOF 10
ENDMDL
MODEL 6
REMARK VINA RESULT:      -6.8      2.614      4.118
REMARK  10 active torsions:
REMARK  status: ('A' for Active; 'I' for Inactive)
REMARK    1  A    between atoms: O_4  and  C_21 
REMARK    2  A    between atoms: O_4  and  C_26 
REMARK    3  A    between atoms: O_5  and  C_22 
REMARK    4  A    between atoms: O_8  and  N_12 
REMARK    5  A    between atoms: CA_16  and  N_11 
REMARK       I    between atoms: N_11  and  C_23 
REMARK    6  A    between atoms: N_14  and  C_29 
REMARK    7  A    between atoms: CA_18  and  C_22 
REMARK    8  A    between atoms: C_19  and  C_21 
REMARK    9  A    between atoms: C_23  and  C_24 
REMARK   10  A    between atoms: C_24  and  C_25 
ROOT
ATOM      1  S   UNL d   1      37.394  -8.524  -2.857  0.00  0.00    -0.136 SA
ATOM      2  O   UNL d   1      41.482  -8.894  -2.294  0.00  0.00    -0.271 OA
ATOM      3  N   UNL d   1      39.761  -7.348  -2.551  0.00  0.00    -0.293 N 
ATOM      4  C   UNL d   1      38.776  -7.602  -3.600  0.00  0.00     0.187 C 
ATOM      5  CA  UNL d   1      39.911  -8.427  -4.308  0.00  0.00     0.211 C 
ATOM      6  C   UNL d   1      40.574  -8.387  -2.896  0.00  0.00     0.251 C 
ATOM      7  CA  UNL d   1      39.459  -6.815  -1.316  0.00  0.00     0.117 C 
ATOM      8  C   UNL d   1      38.166  -6.707  -0.889  0.00  0.00    -0.013 C 
ATOM      9  C   UNL d   1      36.976  -7.184  -1.693  0.00  0.00     0.115 C 
ENDROOT
BRANCH   5  10
ATOM     10  N   UNL d   1      39.512  -9.680  -5.042  0.00  0.00    -0.339 N 
ATOM     11  C   UNL d   1      39.746  -9.687  -6.416  0.00  0.00     0.275 C 
ATOM     12  O   UNL d   1      39.436 -10.670  -7.090  0.00  0.00    -0.266 OA
ATOM     13  H   UNL d   1      39.278 -10.552  -4.579  0.00  0.00     0.163 HD
BRANCH  11  14
ATOM     14  C   UNL d   1      40.411  -8.508  -7.136  0.00  0.00     0.180 C 
ATOM     15  N   UNL d   1      39.862  -7.495  -7.736  0.00  0.00    -0.126 NA
BRANCH  15  16
ATOM     16  O   UNL d   1      38.468  -7.430  -7.737  0.00  0.00    -0.261 OA
ATOM     17  C   UNL d   1      38.107  -6.551  -8.818  0.00  0.00     0.240 C 
ENDBRANCH  15  16
BRANCH  14  18
ATOM     18  C   UNL d   1      41.873  -8.567  -7.289  0.00  0.00     0.102 A 
ATOM     19  N   UNL d   1      42.576  -7.601  -7.999  0.00  0.00    -0.222 NA
ATOM     20  C   UNL d   1      43.864  -7.785  -7.865  0.00  0.00     0.164 A 
ATOM     21  S   UNL d   1      44.326  -9.173  -6.972  0.00  0.00    -0.062 SA
ATOM     22  C   UNL d   1      42.675  -9.532  -6.700  0.00  0.00     0.087 A 
BRANCH  20  23
ATOM     23  N   UNL d   1      44.775  -6.955  -8.389  0.00  0.00    -0.378 N 
ATOM     24  H   UNL d   1      44.466  -6.164  -8.938  0.00  0.00     0.158 HD
ATOM     25  H   UNL d   1      45.614  -6.807  -7.842  0.00  0.00     0.158 HD
ENDBRANCH  20  23
ENDBRANCH  14  18
ENDBRANCH  11  14
ENDBRANCH   5  10
BRANCH   7  26
ATOM     26  C   UNL d   1      40.596  -6.221  -0.500  0.00  0.00     0.194 C 
ATOM     27  OXT UNL d   1      40.809  -5.017  -0.422  0.00  0.00    -0.645 OA
BRANCH  26  28
ATOM     28  O   UNL d   1      41.455  -7.114   0.016  0.00  0.00    -0.772 OA
ATOM     29  H   UNL d   1      41.572  -7.937  -0.505  0.00  0.00     0.167 HD
ENDBRANCH  26  28
ENDBRANCH   7  26
BRANCH   8  30
ATOM     30  C   UNL d   1      37.769  -6.162   0.476  0.00  0.00     0.216 C 
BRANCH  30  31
ATOM     31  O   UNL d   1      37.228  -7.213   1.293  0.00  0.00    -0.317 OA
BRANCH  31  32
ATOM     32  C   UNL d   1      38.048  -7.708   2.257  0.00  0.00     0.255 C 
ATOM     33  O   UNL d   1      39.252  -7.521   2.333  0.00  0.00    -0.266 OA
ATOM     34  C   UNL d   1      37.253  -8.514   3.239  0.00  0.00     0.126 C 
ENDBRANCH  31  32
ENDBRANCH  30  31
ENDBRANCH   8  30
TORSDOF 10
ENDMDL
MODEL 7
REMARK VINA RESULT:      -6.7     13.052     18.169
REMARK  10 active torsions:
REMARK  status: ('A' for Active; 'I' for Inactive)
REMARK    1  A    between atoms: O_4  and  C_21 
REMARK    2  A    between atoms: O_4  and  C_26 
REMARK    3  A    between atoms: O_5  and  C_22 
REMARK    4  A    between atoms: O_8  and  N_12 
REMARK    5  A    between atoms: CA_16  and  N_11 
REMARK       I    between atoms: N_11  and  C_23 
REMARK    6  A    between atoms: N_14  and  C_29 
REMARK    7  A    between atoms: CA_18  and  C_22 
REMARK    8  A    between atoms: C_19  and  C_21 
REMARK    9  A    between atoms: C_23  and  C_24 
REMARK   10  A    between atoms: C_24  and  C_25 
ROOT
ATOM      1  S   UNL d   1      36.772 -12.657  11.155  0.00  0.00    -0.136 SA
ATOM      2  O   UNL d   1      37.176 -11.088  14.968  0.00  0.00    -0.271 OA
ATOM      3  N   UNL d   1      38.094 -11.066  12.830  0.00  0.00    -0.293 N 
ATOM      4  C   UNL d   1      38.263 -12.351  12.154  0.00  0.00     0.187 C 
ATOM      5  CA  UNL d   1      38.319 -12.973  13.596  0.00  0.00     0.211 C 
ATOM      6  C   UNL d   1      37.693 -11.607  14.015  0.00  0.00     0.251 C 
ATOM      7  CA  UNL d   1      37.713  -9.902  12.198  0.00  0.00     0.117 C 
ATOM      8  C   UNL d   1      37.226  -9.916  10.921  0.00  0.00    -0.013 C 
ATOM      9  C   UNL d   1      37.029 -11.181  10.114  0.00  0.00     0.115 C 
ENDROOT
BRANCH   5  10
ATOM     10  N   UNL d   1      37.676 -14.320  13.804  0.00  0.00    -0.339 N 
ATOM     11  C   UNL d   1      38.363 -15.206  14.631  0.00  0.00     0.275 C 
ATOM     12  O   UNL d   1      37.910 -16.332  14.840  0.00  0.00    -0.266 OA
ATOM     13  H   UNL d   1      36.719 -14.531  13.545  0.00  0.00     0.163 HD
BRANCH  11  14
ATOM     14  C   UNL d   1      39.674 -14.823  15.328  0.00  0.00     0.180 C 
ATOM     15  N   UNL d   1      40.897 -15.092  14.984  0.00  0.00    -0.126 NA
BRANCH  15  16
ATOM     16  O   UNL d   1      41.087 -15.825  13.812  0.00  0.00    -0.261 OA
ATOM     17  C   UNL d   1      42.439 -16.317  13.860  0.00  0.00     0.240 C 
ENDBRANCH  15  16
BRANCH  14  18
ATOM     18  C   UNL d   1      39.558 -14.157  16.635  0.00  0.00     0.102 A 
ATOM     19  N   UNL d   1      40.443 -13.164  17.034  0.00  0.00    -0.222 NA
ATOM     20  C   UNL d   1      40.046 -12.625  18.158  0.00  0.00     0.164 A 
ATOM     21  S   UNL d   1      38.653 -13.329  18.867  0.00  0.00    -0.062 SA
ATOM     22  C   UNL d   1      38.540 -14.408  17.544  0.00  0.00     0.087 A 
BRANCH  20  23
ATOM     23  N   UNL d   1      40.678 -11.594  18.733  0.00  0.00    -0.378 N 
ATOM     24  H   UNL d   1      40.959 -10.806  18.164  0.00  0.00     0.158 HD
ATOM     25  H   UNL d   1      40.404 -11.372  19.682  0.00  0.00     0.158 HD
ENDBRANCH  20  23
ENDBRANCH  14  18
ENDBRANCH  11  14
ENDBRANCH   5  10
BRANCH   7  26
ATOM     26  C   UNL d   1      37.980  -8.585  12.909  0.00  0.00     0.194 C 
ATOM     27  OXT UNL d   1      37.195  -8.078  13.700  0.00  0.00    -0.645 OA
BRANCH  26  28
ATOM     28  O   UNL d   1      39.076  -7.928  12.499  0.00  0.00    -0.772 OA
ATOM     29  H   UNL d   1      38.911  -7.134  11.946  0.00  0.00     0.167 HD
ENDBRANCH  26  28
ENDBRANCH   7  26
BRANCH   8  30
ATOM     30  C   UNL d   1      36.754  -8.672  10.183  0.00  0.00     0.216 C 
BRANCH  30  31
ATOM     31  O   UNL d   1      37.574  -8.438   9.026  0.00  0.00    -0.317 OA
BRANCH  31  32
ATOM     32  C   UNL d   1      38.302  -7.290   9.026  0.00  0.00     0.255 C 
ATOM     33  O   UNL d   1      39.064  -6.931   9.910  0.00  0.00    -0.266 OA
ATOM     34  C   UNL d   1      38.050  -6.525   7.763  0.00  0.00     0.126 C 
ENDBRANCH  31  32
ENDBRANCH  30  31
ENDBRANCH   8  30
TORSDOF 10
ENDMDL
MODEL 8
REMARK VINA RESULT:      -6.6     12.057     17.370
REMARK  10 active torsions:
REMARK  status: ('A' for Active; 'I' for Inactive)
REMARK    1  A    between atoms: O_4  and  C_21 
REMARK    2  A    between atoms: O_4  and  C_26 
REMARK    3  A    between atoms: O_5  and  C_22 
REMARK    4  A    between atoms: O_8  and  N_12 
REMARK    5  A    between atoms: CA_16  and  N_11 
REMARK       I    between atoms: N_11  and  C_23 
REMARK    6  A    between atoms: N_14  and  C_29 
REMARK    7  A    between atoms: CA_18  and  C_22 
REMARK    8  A    between atoms: C_19  and  C_21 
REMARK    9  A    between atoms: C_23  and  C_24 
REMARK   10  A    between atoms: C_24  and  C_25 
ROOT
ATOM      1  S   UNL d   1      36.218 -12.025  12.392  0.00  0.00    -0.136 SA
ATOM      2  O   UNL d   1      37.710  -8.399  13.731  0.00  0.00    -0.271 OA
ATOM      3  N   UNL d   1      37.908  -9.998  12.052  0.00  0.00    -0.293 N 
ATOM      4  C   UNL d   1      37.927 -11.403  12.455  0.00  0.00     0.187 C 
ATOM      5  CA  UNL d   1      38.467 -10.880  13.836  0.00  0.00     0.211 C 
ATOM      6  C   UNL d   1      37.930  -9.508  13.324  0.00  0.00     0.251 C 
ATOM      7  CA  UNL d   1      37.285  -9.526  10.916  0.00  0.00     0.117 C 
ATOM      8  C   UNL d   1      36.424 -10.311  10.203  0.00  0.00    -0.013 C 
ATOM      9  C   UNL d   1      36.054 -11.724  10.601  0.00  0.00     0.115 C 
ENDROOT
BRANCH   5  10
ATOM     10  N   UNL d   1      37.997 -11.583  15.083  0.00  0.00    -0.339 N 
ATOM     11  C   UNL d   1      38.722 -12.712  15.460  0.00  0.00     0.275 C 
ATOM     12  O   UNL d   1      38.394 -13.351  16.461  0.00  0.00    -0.266 OA
ATOM     13  H   UNL d   1      37.337 -11.181  15.739  0.00  0.00     0.163 HD
BRANCH  11  14
ATOM     14  C   UNL d   1      39.953 -13.190  14.680  0.00  0.00     0.180 C 
ATOM     15  N   UNL d   1      40.021 -13.994  13.663  0.00  0.00    -0.126 NA
BRANCH  15  16
ATOM     16  O   UNL d   1      38.821 -14.510  13.173  0.00  0.00    -0.261 OA
ATOM     17  C   UNL d   1      38.383 -15.489  14.134  0.00  0.00     0.240 C 
ENDBRANCH  15  16
BRANCH  14  18
ATOM     18  C   UNL d   1      41.266 -12.791  15.210  0.00  0.00     0.102 A 
ATOM     19  N   UNL d   1      41.787 -13.345  16.373  0.00  0.00    -0.222 NA
ATOM     20  C   UNL d   1      43.020 -12.947  16.555  0.00  0.00     0.164 A 
ATOM     21  S   UNL d   1      43.609 -11.812  15.413  0.00  0.00    -0.062 SA
ATOM     22  C   UNL d   1      42.116 -11.893  14.581  0.00  0.00     0.087 A 
BRANCH  20  23
ATOM     23  N   UNL d   1      43.784 -13.385  17.564  0.00  0.00    -0.378 N 
ATOM     24  H   UNL d   1      43.448 -13.296  18.514  0.00  0.00     0.158 HD
ATOM     25  H   UNL d   1      44.351 -14.202  17.375  0.00  0.00     0.158 HD
ENDBRANCH  20  23
ENDBRANCH  14  18
ENDBRANCH  11  14
ENDBRANCH   5  10
BRANCH   7  26
ATOM     26  C   UNL d   1      37.689  -8.154  10.401  0.00  0.00     0.194 C 
ATOM     27  OXT UNL d   1      37.196  -7.111  10.811  0.00  0.00    -0.645 OA
BRANCH  26  28
ATOM     28  O   UNL d   1      38.521  -8.163   9.347  0.00  0.00    -0.772 OA
ATOM     29  H   UNL d   1      39.264  -7.524   9.390  0.00  0.00     0.167 HD
ENDBRANCH  26  28
ENDBRANCH   7  26
BRANCH   8  30
ATOM     30  C   UNL d   1      35.676  -9.838   8.965  0.00  0.00     0.216 C 
BRANCH  30  31
ATOM     31  O   UNL d   1      36.497  -9.995   7.797  0.00  0.00    -0.317 OA
BRANCH  31  32
ATOM     32  C   UNL d   1      36.422  -9.004   6.870  0.00  0.00     0.255 C 
ATOM     33  O   UNL d   1      37.008  -7.934   6.923  0.00  0.00    -0.266 OA
ATOM     34  C   UNL d   1      35.522  -9.421   5.747  0.00  0.00     0.126 C 
ENDBRANCH  31  32
ENDBRANCH  30  31
ENDBRANCH   8  30
TORSDOF 10
ENDMDL
MODEL 9
REMARK VINA RESULT:      -6.5      3.532      5.363
REMARK  10 active torsions:
REMARK  status: ('A' for Active; 'I' for Inactive)
REMARK    1  A    between atoms: O_4  and  C_21 
REMARK    2  A    between atoms: O_4  and  C_26 
REMARK    3  A    between atoms: O_5  and  C_22 
REMARK    4  A    between atoms: O_8  and  N_12 
REMARK    5  A    between atoms: CA_16  and  N_11 
REMARK       I    between atoms: N_11  and  C_23 
REMARK    6  A    between atoms: N_14  and  C_29 
REMARK    7  A    between atoms: CA_18  and  C_22 
REMARK    8  A    between atoms: C_19  and  C_21 
REMARK    9  A    between atoms: C_23  and  C_24 
REMARK   10  A    between atoms: C_24  and  C_25 
ROOT
ATOM      1  S   UNL d   1      39.512  -7.077  -5.508  0.00  0.00    -0.136 SA
ATOM      2  O   UNL d   1      35.809  -6.001  -7.023  0.00  0.00    -0.271 OA
ATOM      3  N   UNL d   1      36.965  -7.710  -5.945  0.00  0.00    -0.293 N 
ATOM      4  C   UNL d   1      38.294  -8.049  -6.449  0.00  0.00     0.187 C 
ATOM      5  CA  UNL d   1      37.796  -7.469  -7.822  0.00  0.00     0.211 C 
ATOM      6  C   UNL d   1      36.682  -6.824  -6.942  0.00  0.00     0.251 C 
ATOM      7  CA  UNL d   1      36.620  -7.701  -4.610  0.00  0.00     0.117 C 
ATOM      8  C   UNL d   1      37.572  -7.777  -3.633  0.00  0.00    -0.013 C 
ATOM      9  C   UNL d   1      39.058  -7.837  -3.914  0.00  0.00     0.115 C 
ENDROOT
BRANCH   5  10
ATOM     10  N   UNL d   1      38.788  -6.705  -8.661  0.00  0.00    -0.339 N 
ATOM     11  C   UNL d   1      39.019  -7.202  -9.941  0.00  0.00     0.275 C 
ATOM     12  O   UNL d   1      39.826  -6.643 -10.685  0.00  0.00    -0.266 OA
ATOM     13  H   UNL d   1      39.128  -5.779  -8.424  0.00  0.00     0.163 HD
BRANCH  11  14
ATOM     14  C   UNL d   1      38.279  -8.430 -10.487  0.00  0.00     0.180 C 
ATOM     15  N   UNL d   1      38.687  -9.658 -10.590  0.00  0.00    -0.126 NA
BRANCH  15  16
ATOM     16  O   UNL d   1      39.976  -9.945 -10.140  0.00  0.00    -0.261 OA
ATOM     17  C   UNL d   1      39.823 -10.560  -8.848  0.00  0.00     0.240 C 
ENDBRANCH  15  16
BRANCH  14  18
ATOM     18  C   UNL d   1      36.962  -8.189 -11.096  0.00  0.00     0.102 A 
ATOM     19  N   UNL d   1      35.894  -9.056 -10.901  0.00  0.00    -0.222 NA
ATOM     20  C   UNL d   1      34.800  -8.554 -11.413  0.00  0.00     0.164 A 
ATOM     21  S   UNL d   1      34.985  -7.067 -12.246  0.00  0.00    -0.062 SA
ATOM     22  C   UNL d   1      36.650  -7.068 -11.851  0.00  0.00     0.087 A 
BRANCH  20  23
ATOM     23  N   UNL d   1      33.606  -9.151 -11.306  0.00  0.00    -0.378 N 
ATOM     24  H   UNL d   1      33.455 -10.042 -11.760  0.00  0.00     0.158 HD
ATOM     25  H   UNL d   1      33.115  -9.019 -10.430  0.00  0.00     0.158 HD
ENDBRANCH  20  23
ENDBRANCH  14  18
ENDBRANCH  11  14
ENDBRANCH   5  10
BRANCH   7  26
ATOM     26  C   UNL d   1      35.143  -7.747  -4.256  0.00  0.00     0.194 C 
ATOM     27  OXT UNL d   1      34.533  -8.790  -4.055  0.00  0.00    -0.645 OA
BRANCH  26  28
ATOM     28  O   UNL d   1      34.502  -6.569  -4.326  0.00  0.00    -0.772 OA
ATOM     29  H   UNL d   1      33.574  -6.574  -4.010  0.00  0.00     0.167 HD
ENDBRANCH  26  28
ENDBRANCH   7  26
BRANCH   8  30
ATOM     30  C   UNL d   1      37.260  -7.735  -2.144  0.00  0.00     0.216 C 
BRANCH  30  31
ATOM     31  O   UNL d   1      37.184  -6.375  -1.689  0.00  0.00    -0.317 OA
BRANCH  31  32
ATOM     32  C   UNL d   1      37.575  -6.146  -0.408  0.00  0.00     0.255 C 
ATOM     33  O   UNL d   1      36.829  -5.977   0.544  0.00  0.00    -0.266 OA
ATOM     34  C   UNL d   1      39.071  -6.146  -0.321  0.00  0.00     0.126 C 
ENDBRANCH  31  32
ENDBRANCH  30  31
ENDBRANCH   8  30
TORSDOF 10
ENDMDL
