REMARK  10 active torsions:
REMARK  status: ('A' for Active; 'I' for Inactive)
REMARK    1  A    between atoms: O_4  and  C_21 
REMARK    2  A    between atoms: O_4  and  C_26 
REMARK    3  A    between atoms: O_5  and  C_22 
REMARK    4  A    between atoms: O_8  and  N_12 
REMARK    5  A    between atoms: CA_16  and  N_11 
REMARK       I    between atoms: N_11  and  C_23 
REMARK    6  A    between atoms: N_14  and  C_29 
REMARK    7  A    between atoms: CA_18  and  C_22 
REMARK    8  A    between atoms: C_19  and  C_21 
REMARK    9  A    between atoms: C_23  and  C_24 
REMARK   10  A    between atoms: C_24  and  C_25 
ROOT
ATOM      1  S   UNL d   1       1.365   0.993   0.657  0.00  0.00    -0.136 SA
ATOM      2  O   UNL d   1      -2.495  -0.375   1.286  0.00  0.00    -0.271 OA
ATOM      3  N   UNL d   1      -0.682  -0.493  -0.169  0.00  0.00    -0.293 N 
ATOM      4  C   UNL d   1      -0.009   0.758  -0.513  0.00  0.00     0.187 C 
ATOM      5  CA  UNL d   1      -1.380   1.453  -0.183  0.00  0.00     0.211 C 
ATOM      6  C   UNL d   1      -1.688   0.102   0.533  0.00  0.00     0.251 C 
ATOM      7  CA  UNL d   1      -0.033  -1.693   0.031  0.00  0.00     0.117 C 
ATOM      8  C   UNL d   1       1.326  -1.750   0.160  0.00  0.00    -0.013 C 
ATOM      9  C   UNL d   1       2.221  -0.530   0.134  0.00  0.00     0.115 C 
ENDROOT
BRANCH   5  10
ATOM     10  N   UNL d   1      -1.338   2.800   0.490  0.00  0.00    -0.339 N 
ATOM     11  C   UNL d   1      -2.393   3.663   0.201  0.00  0.00     0.275 C 
ATOM     12  O   UNL d   1      -2.425   4.788   0.701  0.00  0.00    -0.266 OA
ATOM     13  H   UNL d   1      -0.717   3.024   1.260  0.00  0.00     0.163 HD
BRANCH  11  14
ATOM     14  C   UNL d   1      -3.554   3.255  -0.714  0.00  0.00     0.180 C 
ATOM     15  N   UNL d   1      -4.796   3.634  -0.686  0.00  0.00    -0.126 NA
BRANCH  15  16
ATOM     16  O   UNL d   1      -5.163   4.553   0.298  0.00  0.00    -0.261 OA
ATOM     17  C   UNL d   1      -6.240   5.329  -0.259  0.00  0.00     0.240 C 
ENDBRANCH  15  16
BRANCH  14  18
ATOM     18  C   UNL d   1      -3.279   2.196  -1.697  0.00  0.00     0.102 A 
ATOM     19  N   UNL d   1      -2.045   2.080  -2.325  0.00  0.00    -0.222 NA
ATOM     20  C   UNL d   1      -1.996   0.982  -3.034  0.00  0.00     0.164 A 
ATOM     21  S   UNL d   1      -3.444   0.065  -3.083  0.00  0.00    -0.062 SA
ATOM     22  C   UNL d   1      -4.182   1.199  -2.035  0.00  0.00     0.087 A 
BRANCH  20  23
ATOM     23  N   UNL d   1      -0.896   0.587  -3.688  0.00  0.00    -0.378 N 
ATOM     24  H   UNL d   1      -0.978  -0.104  -4.422  0.00  0.00     0.158 HD
ATOM     25  H   UNL d   1      -0.180   1.289  -3.827  0.00  0.00     0.158 HD
ENDBRANCH  20  23
ENDBRANCH  14  18
ENDBRANCH  11  14
ENDBRANCH   5  10
BRANCH   7  26
ATOM     26  C   UNL d   1      -0.858  -2.968  -0.036  0.00  0.00     0.194 C 
ATOM     27  OXT UNL d   1      -0.385  -4.059  -0.329  0.00  0.00    -0.645 OA
BRANCH  26  28
ATOM     28  O   UNL d   1      -2.183  -2.798   0.099  0.00  0.00    -0.772 OA
ATOM     29  H   UNL d   1      -2.460  -1.957   0.521  0.00  0.00     0.167 HD
ENDBRANCH  26  28
ENDBRANCH   7  26
BRANCH   8  30
ATOM     30  C   UNL d   1       2.097  -3.036   0.419  0.00  0.00     0.216 C 
BRANCH  30  31
ATOM     31  O   UNL d   1       1.194  -4.150   0.504  0.00  0.00    -0.317 OA
BRANCH  31  32
ATOM     32  C   UNL d   1       0.243  -4.082   1.472  0.00  0.00     0.255 C 
ATOM     33  O   UNL d   1      -0.253  -3.056   1.911  0.00  0.00    -0.266 OA
ATOM     34  C   UNL d   1      -0.131  -5.462   1.920  0.00  0.00     0.126 C 
ENDBRANCH  31  32
ENDBRANCH  30  31
ENDBRANCH   8  30
TORSDOF 10
