MODEL 1
REMARK VINA RESULT:      -6.1      0.000      0.000
REMARK  3 active torsions:
REMARK  status: ('A' for Active; 'I' for Inactive)
REMARK    1  A    between atoms: C_1  and  O_3 
REMARK    2  A    between atoms: C_1  and  C_4 
REMARK    3  A    between atoms: C_5  and  O_10 
ROOT
ATOM      1  C   UNL d   1       6.966 -10.622 -26.204  0.00  0.00     0.070 A 
ATOM      2  C   UNL d   1       6.198 -11.616 -25.583  0.00  0.00     0.082 A 
ATOM      3  C   UNL d   1       6.523 -12.063 -24.303  0.00  0.00     0.037 A 
ATOM      4  C   UNL d   1       7.622 -11.527 -23.632  0.00  0.00     0.003 A 
ATOM      5  C   UNL d   1       8.398 -10.542 -24.242  0.00  0.00     0.001 A 
ATOM      6  C   UNL d   1       8.071 -10.091 -25.523  0.00  0.00     0.021 A 
ENDROOT
BRANCH   1   7
ATOM      7  C   UNL d   1       6.678 -10.082 -27.555  0.00  0.00     0.178 C 
ATOM      8  O   UNL d   1       5.627 -10.185 -28.161  0.00  0.00    -0.646 OA
BRANCH   7   9
ATOM      9  O   UNL d   1       7.728  -9.432 -28.100  0.00  0.00    -0.773 OA
ATOM     10  H   UNL d   1       7.770  -9.806 -29.009  0.00  0.00     0.167 HD
ENDBRANCH   7   9
ENDBRANCH   1   7
BRANCH   2  11
ATOM     11  O   UNL d   1       5.107 -12.208 -26.160  0.00  0.00    -0.360 OA
ATOM     12  H   UNL d   1       5.173 -13.171 -25.992  0.00  0.00     0.217 HD
ENDBRANCH   2  11
TORSDOF 3
ENDMDL
MODEL 2
REMARK VINA RESULT:      -6.0      1.284      2.298
REMARK  3 active torsions:
REMARK  status: ('A' for Active; 'I' for Inactive)
REMARK    1  A    between atoms: C_1  and  O_3 
REMARK    2  A    between atoms: C_1  and  C_4 
REMARK    3  A    between atoms: C_5  and  O_10 
ROOT
ATOM      1  C   UNL d   1       6.999 -11.504 -26.422  0.00  0.00     0.070 A 
ATOM      2  C   UNL d   1       7.970 -10.780 -25.718  0.00  0.00     0.082 A 
ATOM      3  C   UNL d   1       8.070 -10.896 -24.332  0.00  0.00     0.037 A 
ATOM      4  C   UNL d   1       7.198 -11.732 -23.634  0.00  0.00     0.003 A 
ATOM      5  C   UNL d   1       6.224 -12.453 -24.323  0.00  0.00     0.001 A 
ATOM      6  C   UNL d   1       6.125 -12.340 -25.712  0.00  0.00     0.021 A 
ENDROOT
BRANCH   1   7
ATOM      7  C   UNL d   1       6.838 -11.448 -27.896  0.00  0.00     0.178 C 
ATOM      8  O   UNL d   1       5.805 -11.633 -28.513  0.00  0.00    -0.646 OA
BRANCH   7   9
ATOM      9  O   UNL d   1       7.987 -11.164 -28.543  0.00  0.00    -0.773 OA
ATOM     10  H   UNL d   1       8.006 -11.836 -29.261  0.00  0.00     0.167 HD
ENDBRANCH   7   9
ENDBRANCH   1   7
BRANCH   2  11
ATOM     11  O   UNL d   1       8.865  -9.931 -26.310  0.00  0.00    -0.360 OA
ATOM     12  H   UNL d   1       9.639  -9.857 -25.712  0.00  0.00     0.217 HD
ENDBRANCH   2  11
TORSDOF 3
ENDMDL
MODEL 3
REMARK VINA RESULT:      -6.0      2.746      4.154
REMARK  3 active torsions:
REMARK  status: ('A' for Active; 'I' for Inactive)
REMARK    1  A    between atoms: C_1  and  O_3 
REMARK    2  A    between atoms: C_1  and  C_4 
REMARK    3  A    between atoms: C_5  and  O_10 
ROOT
ATOM      1  C   UNL d   1       7.422  -9.692 -24.621  0.00  0.00     0.070 A 
ATOM      2  C   UNL d   1       8.015  -9.960 -25.862  0.00  0.00     0.082 A 
ATOM      3  C   UNL d   1       7.490  -9.409 -27.030  0.00  0.00     0.037 A 
ATOM      4  C   UNL d   1       6.363  -8.588 -26.972  0.00  0.00     0.003 A 
ATOM      5  C   UNL d   1       5.760  -8.319 -25.744  0.00  0.00     0.001 A 
ATOM      6  C   UNL d   1       6.288  -8.869 -24.572  0.00  0.00     0.021 A 
ENDROOT
BRANCH   1   7
ATOM      7  C   UNL d   1       7.928 -10.227 -23.334  0.00  0.00     0.178 C 
ATOM      8  O   UNL d   1       8.305  -9.570 -22.381  0.00  0.00    -0.646 OA
BRANCH   7   9
ATOM      9  O   UNL d   1       7.946 -11.576 -23.292  0.00  0.00    -0.773 OA
ATOM     10  H   UNL d   1       7.279 -11.825 -23.971  0.00  0.00     0.167 HD
ENDBRANCH   7   9
ENDBRANCH   1   7
BRANCH   2  11
ATOM     11  O   UNL d   1       9.117 -10.756 -26.024  0.00  0.00    -0.360 OA
ATOM     12  H   UNL d   1       9.837 -10.192 -26.378  0.00  0.00     0.217 HD
ENDBRANCH   2  11
TORSDOF 3
ENDMDL
MODEL 4
REMARK VINA RESULT:      -6.0      1.943      3.609
REMARK  3 active torsions:
REMARK  status: ('A' for Active; 'I' for Inactive)
REMARK    1  A    between atoms: C_1  and  O_3 
REMARK    2  A    between atoms: C_1  and  C_4 
REMARK    3  A    between atoms: C_5  and  O_10 
ROOT
ATOM      1  C   UNL d   1       6.361 -10.682 -25.044  0.00  0.00     0.070 A 
ATOM      2  C   UNL d   1       5.896 -10.915 -26.345  0.00  0.00     0.082 A 
ATOM      3  C   UNL d   1       5.646  -9.848 -27.207  0.00  0.00     0.037 A 
ATOM      4  C   UNL d   1       5.852  -8.537 -26.778  0.00  0.00     0.003 A 
ATOM      5  C   UNL d   1       6.308  -8.292 -25.483  0.00  0.00     0.001 A 
ATOM      6  C   UNL d   1       6.562  -9.361 -24.619  0.00  0.00     0.021 A 
ENDROOT
BRANCH   1   7
ATOM      7  C   UNL d   1       6.664 -11.761 -24.072  0.00  0.00     0.178 C 
ATOM      8  O   UNL d   1       7.587 -11.774 -23.279  0.00  0.00    -0.646 OA
BRANCH   7   9
ATOM      9  O   UNL d   1       5.795 -12.791 -24.137  0.00  0.00    -0.773 OA
ATOM     10  H   UNL d   1       6.251 -13.426 -24.734  0.00  0.00     0.167 HD
ENDBRANCH   7   9
ENDBRANCH   1   7
BRANCH   2  11
ATOM     11  O   UNL d   1       5.657 -12.162 -26.857  0.00  0.00    -0.360 OA
ATOM     12  H   UNL d   1       5.676 -12.086 -27.835  0.00  0.00     0.217 HD
ENDBRANCH   2  11
TORSDOF 3
ENDMDL
MODEL 5
REMARK VINA RESULT:      -5.9      2.132      3.323
REMARK  3 active torsions:
REMARK  status: ('A' for Active; 'I' for Inactive)
REMARK    1  A    between atoms: C_1  and  O_3 
REMARK    2  A    between atoms: C_1  and  C_4 
REMARK    3  A    between atoms: C_5  and  O_10 
ROOT
ATOM      1  C   UNL d   1       8.349 -10.185 -24.874  0.00  0.00     0.070 A 
ATOM      2  C   UNL d   1       7.775 -10.510 -26.110  0.00  0.00     0.082 A 
ATOM      3  C   UNL d   1       6.796 -11.500 -26.196  0.00  0.00     0.037 A 
ATOM      4  C   UNL d   1       6.383 -12.178 -25.049  0.00  0.00     0.003 A 
ATOM      5  C   UNL d   1       6.951 -11.868 -23.814  0.00  0.00     0.001 A 
ATOM      6  C   UNL d   1       7.930 -10.875 -23.726  0.00  0.00     0.021 A 
ENDROOT
BRANCH   1   7
ATOM      7  C   UNL d   1       9.383  -9.137 -24.695  0.00  0.00     0.178 C 
ATOM      8  O   UNL d   1      10.277  -8.870 -25.477  0.00  0.00    -0.646 OA
BRANCH   7   9
ATOM      9  O   UNL d   1       9.258  -8.462 -23.533  0.00  0.00    -0.773 OA
ATOM     10  H   UNL d   1       9.852  -7.689 -23.663  0.00  0.00     0.167 HD
ENDBRANCH   7   9
ENDBRANCH   1   7
BRANCH   2  11
ATOM     11  O   UNL d   1       8.118  -9.908 -27.290  0.00  0.00    -0.360 OA
ATOM     12  H   UNL d   1       8.684  -9.137 -27.073  0.00  0.00     0.217 HD
ENDBRANCH   2  11
TORSDOF 3
ENDMDL
MODEL 6
REMARK VINA RESULT:      -5.8      0.946      2.447
REMARK  3 active torsions:
REMARK  status: ('A' for Active; 'I' for Inactive)
REMARK    1  A    between atoms: C_1  and  O_3 
REMARK    2  A    between atoms: C_1  and  C_4 
REMARK    3  A    between atoms: C_5  and  O_10 
ROOT
ATOM      1  C   UNL d   1       6.898 -10.889 -26.412  0.00  0.00     0.070 A 
ATOM      2  C   UNL d   1       7.826  -9.842 -26.471  0.00  0.00     0.082 A 
ATOM      3  C   UNL d   1       8.674  -9.587 -25.393  0.00  0.00     0.037 A 
ATOM      4  C   UNL d   1       8.600 -10.373 -24.243  0.00  0.00     0.003 A 
ATOM      5  C   UNL d   1       7.676 -11.415 -24.170  0.00  0.00     0.001 A 
ATOM      6  C   UNL d   1       6.828 -11.673 -25.250  0.00  0.00     0.021 A 
ENDROOT
BRANCH   1   7
ATOM      7  C   UNL d   1       5.973 -11.234 -27.519  0.00  0.00     0.178 C 
ATOM      8  O   UNL d   1       5.767 -12.348 -27.963  0.00  0.00    -0.646 OA
BRANCH   7   9
ATOM      9  O   UNL d   1       5.339 -10.158 -28.032  0.00  0.00    -0.773 OA
ATOM     10  H   UNL d   1       6.066  -9.667 -28.477  0.00  0.00     0.167 HD
ENDBRANCH   7   9
ENDBRANCH   1   7
BRANCH   2  11
ATOM     11  O   UNL d   1       7.971  -9.012 -27.550  0.00  0.00    -0.360 OA
ATOM     12  H   UNL d   1       7.499  -8.177 -27.343  0.00  0.00     0.217 HD
ENDBRANCH   2  11
TORSDOF 3
ENDMDL
MODEL 7
REMARK VINA RESULT:      -5.8      2.219      3.197
REMARK  3 active torsions:
REMARK  status: ('A' for Active; 'I' for Inactive)
REMARK    1  A    between atoms: C_1  and  O_3 
REMARK    2  A    between atoms: C_1  and  C_4 
REMARK    3  A    between atoms: C_5  and  O_10 
ROOT
ATOM      1  C   UNL d   1       6.569  -9.981 -26.381  0.00  0.00     0.070 A 
ATOM      2  C   UNL d   1       7.301 -10.338 -27.522  0.00  0.00     0.082 A 
ATOM      3  C   UNL d   1       7.363 -11.669 -27.933  0.00  0.00     0.037 A 
ATOM      4  C   UNL d   1       6.700 -12.658 -27.206  0.00  0.00     0.003 A 
ATOM      5  C   UNL d   1       5.974 -12.316 -26.066  0.00  0.00     0.001 A 
ATOM      6  C   UNL d   1       5.908 -10.982 -25.655  0.00  0.00     0.021 A 
ENDROOT
BRANCH   1   7
ATOM      7  C   UNL d   1       6.442  -8.588 -25.887  0.00  0.00     0.178 C 
ATOM      8  O   UNL d   1       6.398  -8.240 -24.722  0.00  0.00    -0.646 OA
BRANCH   7   9
ATOM      9  O   UNL d   1       6.371  -7.679 -26.882  0.00  0.00    -0.773 OA
ATOM     10  H   UNL d   1       7.252  -7.243 -26.845  0.00  0.00     0.167 HD
ENDBRANCH   7   9
ENDBRANCH   1   7
BRANCH   2  11
ATOM     11  O   UNL d   1       7.990  -9.444 -28.296  0.00  0.00    -0.360 OA
ATOM     12  H   UNL d   1       8.568  -9.960 -28.896  0.00  0.00     0.217 HD
ENDBRANCH   2  11
TORSDOF 3
ENDMDL
MODEL 8
REMARK VINA RESULT:      -5.8      2.581      3.395
REMARK  3 active torsions:
REMARK  status: ('A' for Active; 'I' for Inactive)
REMARK    1  A    between atoms: C_1  and  O_3 
REMARK    2  A    between atoms: C_1  and  C_4 
REMARK    3  A    between atoms: C_5  and  O_10 
ROOT
ATOM      1  C   UNL d   1       7.985 -10.001 -25.081  0.00  0.00     0.070 A 
ATOM      2  C   UNL d   1       7.381 -10.978 -24.279  0.00  0.00     0.082 A 
ATOM      3  C   UNL d   1       6.321 -11.739 -24.769  0.00  0.00     0.037 A 
ATOM      4  C   UNL d   1       5.848 -11.529 -26.065  0.00  0.00     0.003 A 
ATOM      5  C   UNL d   1       6.436 -10.555 -26.871  0.00  0.00     0.001 A 
ATOM      6  C   UNL d   1       7.501  -9.794 -26.382  0.00  0.00     0.021 A 
ENDROOT
BRANCH   1   7
ATOM      7  C   UNL d   1       9.125  -9.161 -24.640  0.00  0.00     0.178 C 
ATOM      8  O   UNL d   1      10.135  -8.928 -25.278  0.00  0.00    -0.646 OA
BRANCH   7   9
ATOM      9  O   UNL d   1       8.954  -8.645 -23.405  0.00  0.00    -0.773 OA
ATOM     10  H   UNL d   1       8.567  -7.759 -23.589  0.00  0.00     0.167 HD
ENDBRANCH   7   9
ENDBRANCH   1   7
BRANCH   2  11
ATOM     11  O   UNL d   1       7.767 -11.254 -22.995  0.00  0.00    -0.360 OA
ATOM     12  H   UNL d   1       7.693 -12.224 -22.868  0.00  0.00     0.217 HD
ENDBRANCH   2  11
TORSDOF 3
ENDMDL
MODEL 9
REMARK VINA RESULT:      -5.7      1.256      2.051
REMARK  3 active torsions:
REMARK  status: ('A' for Active; 'I' for Inactive)
REMARK    1  A    between atoms: C_1  and  O_3 
REMARK    2  A    between atoms: C_1  and  C_4 
REMARK    3  A    between atoms: C_5  and  O_10 
ROOT
ATOM      1  C   UNL d   1       6.974  -9.988 -26.171  0.00  0.00     0.070 A 
ATOM      2  C   UNL d   1       6.092 -10.876 -26.801  0.00  0.00     0.082 A 
ATOM      3  C   UNL d   1       5.687 -12.045 -26.158  0.00  0.00     0.037 A 
ATOM      4  C   UNL d   1       6.162 -12.341 -24.880  0.00  0.00     0.003 A 
ATOM      5  C   UNL d   1       7.045 -11.469 -24.245  0.00  0.00     0.001 A 
ATOM      6  C   UNL d   1       7.449 -10.296 -24.888  0.00  0.00     0.021 A 
ENDROOT
BRANCH   1   7
ATOM      7  C   UNL d   1       7.441  -8.719 -26.782  0.00  0.00     0.178 C 
ATOM      8  O   UNL d   1       8.598  -8.406 -26.992  0.00  0.00    -0.646 OA
BRANCH   7   9
ATOM      9  O   UNL d   1       6.431  -7.884 -27.103  0.00  0.00    -0.773 OA
ATOM     10  H   UNL d   1       6.573  -7.727 -28.063  0.00  0.00     0.167 HD
ENDBRANCH   7   9
ENDBRANCH   1   7
BRANCH   2  11
ATOM     11  O   UNL d   1       5.577 -10.678 -28.054  0.00  0.00    -0.360 OA
ATOM     12  H   UNL d   1       4.611 -10.839 -28.002  0.00  0.00     0.217 HD
ENDBRANCH   2  11
TORSDOF 3
ENDMDL
