REMARK  3 active torsions:
REMARK  status: ('A' for Active; 'I' for Inactive)
REMARK    1  A    between atoms: C_1  and  O_3 
REMARK    2  A    between atoms: C_1  and  C_4 
REMARK    3  A    between atoms: C_5  and  O_10 
ROOT
ATOM      1  C   UNL d   1       2.482  -0.139  -0.034  0.00  0.00     0.070 A 
ATOM      2  C   UNL d   1       3.210  -1.336  -0.018  0.00  0.00     0.082 A 
ATOM      3  C   UNL d   1       4.604  -1.315   0.007  0.00  0.00     0.037 A 
ATOM      4  C   UNL d   1       5.286  -0.098   0.011  0.00  0.00     0.003 A 
ATOM      5  C   UNL d   1       4.573   1.100  -0.011  0.00  0.00     0.001 A 
ATOM      6  C   UNL d   1       3.176   1.080  -0.033  0.00  0.00     0.021 A 
ENDROOT
BRANCH   1   7
ATOM      7  C   UNL d   1       1.000  -0.076  -0.046  0.00  0.00     0.178 C 
ATOM      8  O   UNL d   1       0.324   0.936  -0.061  0.00  0.00    -0.646 OA
BRANCH   7   9
ATOM      9  O   UNL d   1       0.419  -1.294  -0.035  0.00  0.00    -0.773 OA
ATOM     10  H   UNL d   1      -0.541  -1.079  -0.031  0.00  0.00     0.167 HD
ENDBRANCH   7   9
ENDBRANCH   1   7
BRANCH   2  11
ATOM     11  O   UNL d   1       2.634  -2.578  -0.027  0.00  0.00    -0.360 OA
ATOM     12  H   UNL d   1       1.662  -2.450  -0.050  0.00  0.00     0.217 HD
ENDBRANCH   2  11
TORSDOF 3
