@<TRIPOS>MOLECULE
SAL
 16 16 0 0 0
SMALL
GASTEIGER

@<TRIPOS>ATOM
      1 C           0.9996   -0.0760   -0.0465 C.2     1  UNL1        0.3404
      2 O           0.3235    0.9359   -0.0611 O.2     1  UNL1       -0.2450
      3 O           0.4188   -1.2939   -0.0345 O.3     1  UNL1       -0.4770
      4 C           2.4817   -0.1394   -0.0338 C.ar    1  UNL1        0.1001
      5 C           3.2101   -1.3364   -0.0181 C.ar    1  UNL1        0.1308
      6 C           4.6044   -1.3150    0.0069 C.ar    1  UNL1       -0.0194
      7 C           5.2856   -0.0979    0.0108 C.ar    1  UNL1       -0.0583
      8 C           4.5728    1.0997   -0.0114 C.ar    1  UNL1       -0.0608
      9 C           3.1759    1.0803   -0.0328 C.ar    1  UNL1       -0.0442
     10 O           2.6341   -2.5781   -0.0270 O.3     1  UNL1       -0.5059
     11 H          -0.5414   -1.0788   -0.0310 H       1  UNL1        0.2954
     12 H           5.1590   -2.2497    0.0233 H       1  UNL1        0.0654
     13 H           6.3727   -0.0857    0.0304 H       1  UNL1        0.0619
     14 H           5.1037    2.0487   -0.0106 H       1  UNL1        0.0618
     15 H           2.6313    2.0229   -0.0476 H       1  UNL1        0.0627
     16 H           1.6622   -2.4501   -0.0500 H       1  UNL1        0.2922
@<TRIPOS>BOND
     1     1     2    2
     2     1     3    1
     3     1     4    1
     4     3    11    1
     5     4     5   ar
     6     4     9   ar
     7     5     6   ar
     8     5    10    1
     9     6     7   ar
    10     6    12    1
    11     7     8   ar
    12     7    13    1
    13     8     9   ar
    14     8    14    1
    15     9    15    1
    16    10    16    1
