@<TRIPOS>MOLECULE
SAL
 16 16 0 0 0
SMALL
GASTEIGER

@<TRIPOS>ATOM
      1 C           1.0553   -0.0524    0.0274 C.2     1  UNL1        0.3404
      2 O           0.3779    0.9591    0.0137 O.2     1  UNL1       -0.2450
      3 O           0.4749   -1.2707    0.0387 O.3     1  UNL1       -0.4770
      4 C           2.5371   -0.1155    0.0398 C.ar    1  UNL1        0.1001
      5 C           3.2661   -1.3125    0.0555 C.ar    1  UNL1        0.1308
      6 C           4.6604   -1.2909    0.0805 C.ar    1  UNL1       -0.0194
      7 C           5.3413   -0.0737    0.0842 C.ar    1  UNL1       -0.0583
      8 C           4.6284    1.1239    0.0617 C.ar    1  UNL1       -0.0608
      9 C           3.2315    1.1043    0.0405 C.ar    1  UNL1       -0.0442
     10 O           2.6904   -2.5542    0.0462 O.3     1  UNL1       -0.5059
     11 H          -0.4853   -1.0560    0.0413 H       1  UNL1        0.2954
     12 H           5.2151   -2.2257    0.0971 H       1  UNL1        0.0654
     13 H           6.4284   -0.0616    0.1042 H       1  UNL1        0.0619
     14 H           5.1592    2.0730    0.0624 H       1  UNL1        0.0618
     15 H           2.6867    2.0468    0.0262 H       1  UNL1        0.0627
     16 H           1.7185   -2.4264    0.0207 H       1  UNL1        0.2922
@<TRIPOS>BOND
     1     1     2    2
     2     1     3    1
     3     1     4    1
     4     3    11    1
     5     4     5   ar
     6     4     9   ar
     7     5     6   ar
     8     5    10    1
     9     6     7   ar
    10     6    12    1
    11     7     8   ar
    12     7    13    1
    13     8     9   ar
    14     8    14    1
    15     9    15    1
    16    10    16    1
