REMARK  3 active torsions:
REMARK  status: ('A' for Active; 'I' for Inactive)
REMARK    1  A    between atoms: C_1  and  O_3 
REMARK    2  A    between atoms: C_1  and  C_4 
REMARK    3  A    between atoms: C_5  and  O_10 
ROOT
ATOM      1  C   UNL d   1       2.537  -0.116   0.040  0.00  0.00     0.070 A 
ATOM      2  C   UNL d   1       3.266  -1.312   0.056  0.00  0.00     0.082 A 
ATOM      3  C   UNL d   1       4.660  -1.291   0.081  0.00  0.00     0.037 A 
ATOM      4  C   UNL d   1       5.341  -0.074   0.084  0.00  0.00     0.003 A 
ATOM      5  C   UNL d   1       4.628   1.124   0.062  0.00  0.00     0.001 A 
ATOM      6  C   UNL d   1       3.232   1.104   0.041  0.00  0.00     0.021 A 
ENDROOT
BRANCH   1   7
ATOM      7  C   UNL d   1       1.055  -0.052   0.027  0.00  0.00     0.178 C 
ATOM      8  O   UNL d   1       0.378   0.959   0.014  0.00  0.00    -0.646 OA
BRANCH   7   9
ATOM      9  O   UNL d   1       0.475  -1.271   0.039  0.00  0.00    -0.773 OA
ATOM     10  H   UNL d   1      -0.485  -1.056   0.041  0.00  0.00     0.167 HD
ENDBRANCH   7   9
ENDBRANCH   1   7
BRANCH   2  11
ATOM     11  O   UNL d   1       2.690  -2.554   0.046  0.00  0.00    -0.360 OA
ATOM     12  H   UNL d   1       1.718  -2.426   0.021  0.00  0.00     0.217 HD
ENDBRANCH   2  11
TORSDOF 3
