MODEL 1
REMARK VINA RESULT:      -7.7      0.000      0.000
REMARK  17 active torsions:
REMARK  status: ('A' for Active; 'I' for Inactive)
REMARK    1  A    between atoms: C_6  and  N_7 
REMARK    2  A    between atoms: N_10  and  C_11 
REMARK    3  A    between atoms: C_12  and  O_13 
REMARK    4  A    between atoms: C_14  and  O_15 
REMARK    5  A    between atoms: C_17  and  C_18 
REMARK    6  A    between atoms: C_18  and  O_19 
REMARK    7  A    between atoms: P_20  and  O_19 
REMARK    8  A    between atoms: P_20  and  O_22 
REMARK    9  A    between atoms: P_20  and  O_23 
REMARK   10  A    between atoms: P_24  and  O_23 
REMARK   11  A    between atoms: P_24  and  O_26 
REMARK   12  A    between atoms: P_24  and  O_27 
REMARK   13  A    between atoms: O_27  and  C_28 
REMARK   14  A    between atoms: C_28  and  C_36 
REMARK   15  A    between atoms: C_31  and  O_30 
REMARK   16  A    between atoms: O_32  and  C_33 
REMARK   17  A    between atoms: O_34  and  C_35 
ROOT
ATOM      1  O   UNL d   1      28.771   8.175  38.058  0.00  0.00    -0.294 OA
ENDROOT
BRANCH   1   2
ATOM      2  C   UNL d   1      27.794   7.590  37.222  0.00  0.00     0.215 C 
BRANCH   2   3
ATOM      3  C   UNL d   1      26.836   6.732  38.054  0.00  0.00     0.180 C 
ATOM      4  C   UNL d   1      25.532   6.393  37.338  0.00  0.00     0.182 C 
ATOM      5  C   UNL d   1      24.562   7.468  37.806  0.00  0.00     0.198 C 
ATOM      6  C   UNL d   1      25.037   7.708  39.240  0.00  0.00     0.262 C 
ATOM      7  O   UNL d   1      26.463   7.426  39.270  0.00  0.00    -0.353 OA
BRANCH   4   8
ATOM      8  O   UNL d   1      25.028   5.111  37.773  0.00  0.00    -0.390 OA
ATOM      9  H   UNL d   1      25.695   4.683  38.342  0.00  0.00     0.210 HD
ENDBRANCH   4   8
BRANCH   5  10
ATOM     10  O   UNL d   1      23.216   7.001  37.714  0.00  0.00    -0.388 OA
ATOM     11  H   UNL d   1      23.199   6.123  38.146  0.00  0.00     0.210 HD
ENDBRANCH   5  10
BRANCH   6  12
ATOM     12  N   UNL d   1      24.795   9.048  39.734  0.00  0.00    -0.294 N 
ATOM     13  C   UNL d   1      25.676   9.796  40.473  0.00  0.00     0.166 A 
ATOM     14  N   UNL d   1      26.914   9.462  40.873  0.00  0.00    -0.222 NA
ATOM     15  C   UNL d   1      25.014  10.990  40.717  0.00  0.00     0.144 A 
ATOM     16  C   UNL d   1      27.473  10.458  41.588  0.00  0.00     0.237 A 
ATOM     17  N   UNL d   1      26.954  11.669  41.900  0.00  0.00    -0.228 NA
ATOM     18  C   UNL d   1      25.703  11.954  41.475  0.00  0.00     0.135 A 
ATOM     19  N   UNL d   1      23.770  10.992  40.121  0.00  0.00    -0.236 NA
ATOM     20  C   UNL d   1      23.675   9.814  39.538  0.00  0.00     0.214 A 
BRANCH  18  21
ATOM     21  N   UNL d   1      25.173  13.201  41.790  0.00  0.00    -0.285 NA
ATOM     22  H   UNL d   1      25.684  13.967  41.365  0.00  0.00     0.125 HD
ATOM     23  H   UNL d   1      24.944  13.276  42.773  0.00  0.00     0.125 HD
ENDBRANCH  18  21
ENDBRANCH   6  12
ENDBRANCH   2   3
ENDBRANCH   1   2
BRANCH   1  24
ATOM     24  P   UNL d   1      29.182   9.708  37.802  0.00  0.00     0.401 P 
ATOM     25  O   UNL d   1      28.090  10.718  37.861  0.00  0.00    -0.631 OA
BRANCH  24  26
ATOM     26  O   UNL d   1      29.852   9.652  36.346  0.00  0.00    -0.307 OA
ATOM     27  H   UNL d   1      30.004  10.551  35.998  0.00  0.00     0.222 HD
ENDBRANCH  24  26
BRANCH  24  28
ATOM     28  O   UNL d   1      30.420   9.910  38.759  0.00  0.00    -0.195 OA
BRANCH  28  29
ATOM     29  P   UNL d   1      31.287  11.263  39.002  0.00  0.00     0.401 P 
ATOM     30  O   UNL d   1      30.677  11.466  40.410  0.00  0.00    -0.631 OA
BRANCH  29  31
ATOM     31  O   UNL d   1      30.215  12.308  38.330  0.00  0.00    -0.307 OA
ATOM     32  H   UNL d   1      30.555  13.200  38.551  0.00  0.00     0.222 HD
ENDBRANCH  29  31
BRANCH  29  33
ATOM     33  O   UNL d   1      31.969  11.036  37.428  0.00  0.00    -0.294 OA
BRANCH  33  34
ATOM     34  C   UNL d   1      32.646  12.146  36.840  0.00  0.00     0.215 C 
BRANCH  34  35
ATOM     35  C   UNL d   1      32.083  12.609  35.489  0.00  0.00     0.180 C 
ATOM     36  O   UNL d   1      30.914  11.825  35.179  0.00  0.00    -0.349 OA
ATOM     37  C   UNL d   1      29.871  12.701  34.755  0.00  0.00     0.288 C 
ATOM     38  C   UNL d   1      30.156  14.032  35.448  0.00  0.00     0.204 C 
ATOM     39  C   UNL d   1      31.672  14.085  35.420  0.00  0.00     0.182 C 
BRANCH  37  40
ATOM     40  O   UNL d   1      28.624  12.175  35.155  0.00  0.00    -0.369 OA
ATOM     41  H   UNL d   1      28.665  12.008  36.113  0.00  0.00     0.212 HD
ENDBRANCH  37  40
BRANCH  38  42
ATOM     42  O   UNL d   1      29.528  15.121  34.782  0.00  0.00    -0.388 OA
ATOM     43  H   UNL d   1      29.152  15.701  35.475  0.00  0.00     0.210 HD
ENDBRANCH  38  42
BRANCH  39  44
ATOM     44  O   UNL d   1      32.094  14.697  34.189  0.00  0.00    -0.390 OA
ATOM     45  H   UNL d   1      32.827  15.315  34.367  0.00  0.00     0.210 HD
ENDBRANCH  39  44
ENDBRANCH  34  35
ENDBRANCH  33  34
ENDBRANCH  29  33
ENDBRANCH  28  29
ENDBRANCH  24  28
ENDBRANCH   1  24
TORSDOF 17
ENDMDL
MODEL 2
REMARK VINA RESULT:      -7.6      3.639      7.387
REMARK  17 active torsions:
REMARK  status: ('A' for Active; 'I' for Inactive)
REMARK    1  A    between atoms: C_6  and  N_7 
REMARK    2  A    between atoms: N_10  and  C_11 
REMARK    3  A    between atoms: C_12  and  O_13 
REMARK    4  A    between atoms: C_14  and  O_15 
REMARK    5  A    between atoms: C_17  and  C_18 
REMARK    6  A    between atoms: C_18  and  O_19 
REMARK    7  A    between atoms: P_20  and  O_19 
REMARK    8  A    between atoms: P_20  and  O_22 
REMARK    9  A    between atoms: P_20  and  O_23 
REMARK   10  A    between atoms: P_24  and  O_23 
REMARK   11  A    between atoms: P_24  and  O_26 
REMARK   12  A    between atoms: P_24  and  O_27 
REMARK   13  A    between atoms: O_27  and  C_28 
REMARK   14  A    between atoms: C_28  and  C_36 
REMARK   15  A    between atoms: C_31  and  O_30 
REMARK   16  A    between atoms: O_32  and  C_33 
REMARK   17  A    between atoms: O_34  and  C_35 
ROOT
ATOM      1  O   UNL d   1      27.028   8.836  38.683  0.00  0.00    -0.294 OA
ENDROOT
BRANCH   1   2
ATOM      2  C   UNL d   1      27.828   8.673  39.835  0.00  0.00     0.215 C 
BRANCH   2   3
ATOM      3  C   UNL d   1      28.309  10.037  40.340  0.00  0.00     0.180 C 
ATOM      4  C   UNL d   1      28.515  10.098  41.850  0.00  0.00     0.182 C 
ATOM      5  C   UNL d   1      27.202  10.655  42.381  0.00  0.00     0.198 C 
ATOM      6  C   UNL d   1      26.793  11.605  41.254  0.00  0.00     0.262 C 
ATOM      7  O   UNL d   1      27.339  11.064  40.020  0.00  0.00    -0.353 OA
BRANCH   4   8
ATOM      8  O   UNL d   1      29.567  11.029  42.186  0.00  0.00    -0.390 OA
ATOM      9  H   UNL d   1      29.846  10.876  43.108  0.00  0.00     0.210 HD
ENDBRANCH   4   8
BRANCH   5  10
ATOM     10  O   UNL d   1      27.404  11.302  43.637  0.00  0.00    -0.388 OA
ATOM     11  H   UNL d   1      28.318  11.652  43.622  0.00  0.00     0.210 HD
ENDBRANCH   5  10
BRANCH   6  12
ATOM     12  N   UNL d   1      25.362  11.789  41.116  0.00  0.00    -0.294 N 
ATOM     13  C   UNL d   1      24.627  12.782  41.711  0.00  0.00     0.166 A 
ATOM     14  N   UNL d   1      25.061  13.770  42.511  0.00  0.00    -0.222 NA
ATOM     15  C   UNL d   1      23.322  12.555  41.300  0.00  0.00     0.144 A 
ATOM     16  C   UNL d   1      24.038  14.553  42.907  0.00  0.00     0.237 A 
ATOM     17  N   UNL d   1      22.726  14.456  42.587  0.00  0.00    -0.228 NA
ATOM     18  C   UNL d   1      22.341  13.442  41.780  0.00  0.00     0.135 A 
ATOM     19  N   UNL d   1      23.257  11.469  40.451  0.00  0.00    -0.236 NA
ATOM     20  C   UNL d   1      24.499  11.038  40.362  0.00  0.00     0.214 A 
BRANCH  18  21
ATOM     21  N   UNL d   1      20.995  13.347  41.445  0.00  0.00    -0.285 NA
ATOM     22  H   UNL d   1      20.398  13.915  42.037  0.00  0.00     0.125 HD
ATOM     23  H   UNL d   1      20.715  12.390  41.275  0.00  0.00     0.125 HD
ENDBRANCH  18  21
ENDBRANCH   6  12
ENDBRANCH   2   3
ENDBRANCH   1   2
BRANCH   1  24
ATOM     24  P   UNL d   1      27.652   8.446  37.254  0.00  0.00     0.401 P 
ATOM     25  O   UNL d   1      29.087   8.051  37.229  0.00  0.00    -0.631 OA
BRANCH  24  26
ATOM     26  O   UNL d   1      27.392   9.769  36.386  0.00  0.00    -0.307 OA
ATOM     27  H   UNL d   1      27.790  10.550  36.814  0.00  0.00     0.222 HD
ENDBRANCH  24  26
BRANCH  24  28
ATOM     28  O   UNL d   1      26.601   7.423  36.673  0.00  0.00    -0.195 OA
BRANCH  28  29
ATOM     29  P   UNL d   1      25.871   6.191  37.441  0.00  0.00     0.401 P 
ATOM     30  O   UNL d   1      27.179   5.362  37.469  0.00  0.00    -0.631 OA
BRANCH  29  31
ATOM     31  O   UNL d   1      25.343   5.408  36.099  0.00  0.00    -0.307 OA
ATOM     32  H   UNL d   1      24.884   6.092  35.569  0.00  0.00     0.222 HD
ENDBRANCH  29  31
BRANCH  29  33
ATOM     33  O   UNL d   1      24.410   7.116  37.411  0.00  0.00    -0.294 OA
BRANCH  33  34
ATOM     34  C   UNL d   1      23.179   6.400  37.495  0.00  0.00     0.215 C 
BRANCH  34  35
ATOM     35  C   UNL d   1      22.062   7.114  38.269  0.00  0.00     0.180 C 
ATOM     36  O   UNL d   1      21.477   6.186  39.204  0.00  0.00    -0.349 OA
ATOM     37  C   UNL d   1      21.364   6.822  40.476  0.00  0.00     0.288 C 
ATOM     38  C   UNL d   1      22.482   7.863  40.506  0.00  0.00     0.204 C 
ATOM     39  C   UNL d   1      22.502   8.347  39.069  0.00  0.00     0.182 C 
BRANCH  37  40
ATOM     40  O   UNL d   1      21.533   5.862  41.497  0.00  0.00    -0.369 OA
ATOM     41  H   UNL d   1      20.787   5.952  42.116  0.00  0.00     0.212 HD
ENDBRANCH  37  40
BRANCH  38  42
ATOM     42  O   UNL d   1      22.224   8.889  41.457  0.00  0.00    -0.388 OA
ATOM     43  H   UNL d   1      21.452   9.393  41.130  0.00  0.00     0.210 HD
ENDBRANCH  38  42
BRANCH  39  44
ATOM     44  O   UNL d   1      21.569   9.431  38.930  0.00  0.00    -0.390 OA
ATOM     45  H   UNL d   1      22.038  10.228  38.618  0.00  0.00     0.210 HD
ENDBRANCH  39  44
ENDBRANCH  34  35
ENDBRANCH  33  34
ENDBRANCH  29  33
ENDBRANCH  28  29
ENDBRANCH  24  28
ENDBRANCH   1  24
TORSDOF 17
ENDMDL
MODEL 3
REMARK VINA RESULT:      -7.5      6.460     11.501
REMARK  17 active torsions:
REMARK  status: ('A' for Active; 'I' for Inactive)
REMARK    1  A    between atoms: C_6  and  N_7 
REMARK    2  A    between atoms: N_10  and  C_11 
REMARK    3  A    between atoms: C_12  and  O_13 
REMARK    4  A    between atoms: C_14  and  O_15 
REMARK    5  A    between atoms: C_17  and  C_18 
REMARK    6  A    between atoms: C_18  and  O_19 
REMARK    7  A    between atoms: P_20  and  O_19 
REMARK    8  A    between atoms: P_20  and  O_22 
REMARK    9  A    between atoms: P_20  and  O_23 
REMARK   10  A    between atoms: P_24  and  O_23 
REMARK   11  A    between atoms: P_24  and  O_26 
REMARK   12  A    between atoms: P_24  and  O_27 
REMARK   13  A    between atoms: O_27  and  C_28 
REMARK   14  A    between atoms: C_28  and  C_36 
REMARK   15  A    between atoms: C_31  and  O_30 
REMARK   16  A    between atoms: O_32  and  C_33 
REMARK   17  A    between atoms: O_34  and  C_35 
ROOT
ATOM      1  O   UNL d   1      21.491   7.949  41.862  0.00  0.00    -0.294 OA
ENDROOT
BRANCH   1   2
ATOM      2  C   UNL d   1      22.853   7.905  41.490  0.00  0.00     0.215 C 
BRANCH   2   3
ATOM      3  C   UNL d   1      23.046   8.564  40.121  0.00  0.00     0.180 C 
ATOM      4  C   UNL d   1      24.408   8.290  39.491  0.00  0.00     0.182 C 
ATOM      5  C   UNL d   1      25.253   9.488  39.898  0.00  0.00     0.198 C 
ATOM      6  C   UNL d   1      24.213  10.610  39.904  0.00  0.00     0.262 C 
ATOM      7  O   UNL d   1      22.933  10.004  40.234  0.00  0.00    -0.353 OA
BRANCH   4   8
ATOM      8  O   UNL d   1      24.311   8.276  38.050  0.00  0.00    -0.390 OA
ATOM      9  H   UNL d   1      25.187   8.474  37.669  0.00  0.00     0.210 HD
ENDBRANCH   4   8
BRANCH   5  10
ATOM     10  O   UNL d   1      26.316   9.690  38.967  0.00  0.00    -0.388 OA
ATOM     11  H   UNL d   1      27.143   9.471  39.441  0.00  0.00     0.210 HD
ENDBRANCH   5  10
BRANCH   6  12
ATOM     12  N   UNL d   1      24.498  11.685  40.833  0.00  0.00    -0.294 N 
ATOM     13  C   UNL d   1      23.562  12.489  41.432  0.00  0.00     0.166 A 
ATOM     14  N   UNL d   1      22.226  12.445  41.300  0.00  0.00    -0.222 NA
ATOM     15  C   UNL d   1      24.294  13.363  42.220  0.00  0.00     0.144 A 
ATOM     16  C   UNL d   1      21.638  13.402  42.045  0.00  0.00     0.237 A 
ATOM     17  N   UNL d   1      22.218  14.315  42.859  0.00  0.00    -0.228 NA
ATOM     18  C   UNL d   1      23.566  14.318  42.954  0.00  0.00     0.135 A 
ATOM     19  N   UNL d   1      25.643  13.089  42.135  0.00  0.00    -0.236 NA
ATOM     20  C   UNL d   1      25.728  12.075  41.296  0.00  0.00     0.214 A 
BRANCH  18  21
ATOM     21  N   UNL d   1      24.161  15.251  43.796  0.00  0.00    -0.285 NA
ATOM     22  H   UNL d   1      24.541  14.837  44.640  0.00  0.00     0.125 HD
ATOM     23  H   UNL d   1      23.596  16.085  43.894  0.00  0.00     0.125 HD
ENDBRANCH  18  21
ENDBRANCH   6  12
ENDBRANCH   2   3
ENDBRANCH   1   2
BRANCH   1  24
ATOM     24  P   UNL d   1      20.650   6.579  41.858  0.00  0.00     0.401 P 
ATOM     25  O   UNL d   1      21.273   5.406  41.185  0.00  0.00    -0.631 OA
BRANCH  24  26
ATOM     26  O   UNL d   1      19.282   7.011  41.140  0.00  0.00    -0.307 OA
ATOM     27  H   UNL d   1      19.385   7.866  40.681  0.00  0.00     0.222 HD
ENDBRANCH  24  26
BRANCH  24  28
ATOM     28  O   UNL d   1      20.226   6.416  43.369  0.00  0.00    -0.195 OA
BRANCH  28  29
ATOM     29  P   UNL d   1      19.004   7.147  44.152  0.00  0.00     0.401 P 
ATOM     30  O   UNL d   1      19.972   8.125  44.862  0.00  0.00    -0.631 OA
BRANCH  29  31
ATOM     31  O   UNL d   1      18.977   6.147  45.453  0.00  0.00    -0.307 OA
ATOM     32  H   UNL d   1      18.851   5.249  45.081  0.00  0.00     0.222 HD
ENDBRANCH  29  31
BRANCH  29  33
ATOM     33  O   UNL d   1      17.922   6.055  43.358  0.00  0.00    -0.294 OA
BRANCH  33  34
ATOM     34  C   UNL d   1      16.542   6.128  43.711  0.00  0.00     0.215 C 
BRANCH  34  35
ATOM     35  C   UNL d   1      15.562   5.809  42.573  0.00  0.00     0.180 C 
ATOM     36  O   UNL d   1      14.236   6.206  42.976  0.00  0.00    -0.349 OA
ATOM     37  C   UNL d   1      13.632   6.943  41.914  0.00  0.00     0.288 C 
ATOM     38  C   UNL d   1      14.795   7.582  41.156  0.00  0.00     0.204 C 
ATOM     39  C   UNL d   1      15.857   6.502  41.238  0.00  0.00     0.182 C 
BRANCH  37  40
ATOM     40  O   UNL d   1      12.773   7.924  42.452  0.00  0.00    -0.369 OA
ATOM     41  H   UNL d   1      12.036   8.048  41.828  0.00  0.00     0.212 HD
ENDBRANCH  37  40
BRANCH  38  42
ATOM     42  O   UNL d   1      14.430   7.933  39.827  0.00  0.00    -0.388 OA
ATOM     43  H   UNL d   1      15.262   8.075  39.331  0.00  0.00     0.210 HD
ENDBRANCH  38  42
BRANCH  39  44
ATOM     44  O   UNL d   1      15.696   5.605  40.126  0.00  0.00    -0.390 OA
ATOM     45  H   UNL d   1      15.115   4.865  40.385  0.00  0.00     0.210 HD
ENDBRANCH  39  44
ENDBRANCH  34  35
ENDBRANCH  33  34
ENDBRANCH  29  33
ENDBRANCH  28  29
ENDBRANCH  24  28
ENDBRANCH   1  24
TORSDOF 17
ENDMDL
MODEL 4
REMARK VINA RESULT:      -7.4      4.279      7.639
REMARK  17 active torsions:
REMARK  status: ('A' for Active; 'I' for Inactive)
REMARK    1  A    between atoms: C_6  and  N_7 
REMARK    2  A    between atoms: N_10  and  C_11 
REMARK    3  A    between atoms: C_12  and  O_13 
REMARK    4  A    between atoms: C_14  and  O_15 
REMARK    5  A    between atoms: C_17  and  C_18 
REMARK    6  A    between atoms: C_18  and  O_19 
REMARK    7  A    between atoms: P_20  and  O_19 
REMARK    8  A    between atoms: P_20  and  O_22 
REMARK    9  A    between atoms: P_20  and  O_23 
REMARK   10  A    between atoms: P_24  and  O_23 
REMARK   11  A    between atoms: P_24  and  O_26 
REMARK   12  A    between atoms: P_24  and  O_27 
REMARK   13  A    between atoms: O_27  and  C_28 
REMARK   14  A    between atoms: C_28  and  C_36 
REMARK   15  A    between atoms: C_31  and  O_30 
REMARK   16  A    between atoms: O_32  and  C_33 
REMARK   17  A    between atoms: O_34  and  C_35 
ROOT
ATOM      1  O   UNL d   1      27.744   8.808  39.202  0.00  0.00    -0.294 OA
ENDROOT
BRANCH   1   2
ATOM      2  C   UNL d   1      27.066  10.042  39.305  0.00  0.00     0.215 C 
BRANCH   2   3
ATOM      3  C   UNL d   1      26.487  10.209  40.713  0.00  0.00     0.180 C 
ATOM      4  C   UNL d   1      26.935  11.486  41.417  0.00  0.00     0.182 C 
ATOM      5  C   UNL d   1      28.136  11.051  42.244  0.00  0.00     0.198 C 
ATOM      6  C   UNL d   1      27.743   9.624  42.629  0.00  0.00     0.262 C 
ATOM      7  O   UNL d   1      26.899   9.110  41.563  0.00  0.00    -0.353 OA
BRANCH   4   8
ATOM      8  O   UNL d   1      25.912  11.957  42.322  0.00  0.00    -0.390 OA
ATOM      9  H   UNL d   1      25.428  11.191  42.683  0.00  0.00     0.210 HD
ENDBRANCH   4   8
BRANCH   5  10
ATOM     10  O   UNL d   1      28.315  11.922  43.361  0.00  0.00    -0.388 OA
ATOM     11  H   UNL d   1      28.667  12.762  43.002  0.00  0.00     0.210 HD
ENDBRANCH   5  10
BRANCH   6  12
ATOM     12  N   UNL d   1      28.865   8.730  42.837  0.00  0.00    -0.294 N 
ATOM     13  C   UNL d   1      29.852   8.897  43.775  0.00  0.00     0.166 A 
ATOM     14  N   UNL d   1      29.980   9.883  44.678  0.00  0.00    -0.222 NA
ATOM     15  C   UNL d   1      30.700   7.814  43.598  0.00  0.00     0.144 A 
ATOM     16  C   UNL d   1      31.085   9.709  45.428  0.00  0.00     0.237 A 
ATOM     17  N   UNL d   1      31.994   8.707  45.373  0.00  0.00    -0.228 NA
ATOM     18  C   UNL d   1      31.821   7.741  44.444  0.00  0.00     0.135 A 
ATOM     19  N   UNL d   1      30.234   6.984  42.599  0.00  0.00    -0.236 NA
ATOM     20  C   UNL d   1      29.131   7.564  42.168  0.00  0.00     0.214 A 
BRANCH  18  21
ATOM     21  N   UNL d   1      32.751   6.708  44.392  0.00  0.00    -0.285 NA
ATOM     22  H   UNL d   1      33.618   6.932  44.869  0.00  0.00     0.125 HD
ATOM     23  H   UNL d   1      32.814   6.303  43.467  0.00  0.00     0.125 HD
ENDBRANCH  18  21
ENDBRANCH   6  12
ENDBRANCH   2   3
ENDBRANCH   1   2
BRANCH   1  24
ATOM     24  P   UNL d   1      27.617   7.974  37.834  0.00  0.00     0.401 P 
ATOM     25  O   UNL d   1      28.883   7.661  37.115  0.00  0.00    -0.631 OA
BRANCH  24  26
ATOM     26  O   UNL d   1      26.651   8.898  36.949  0.00  0.00    -0.307 OA
ATOM     27  H   UNL d   1      26.591   8.563  36.034  0.00  0.00     0.222 HD
ENDBRANCH  24  26
BRANCH  24  28
ATOM     28  O   UNL d   1      26.687   6.765  38.237  0.00  0.00    -0.195 OA
BRANCH  28  29
ATOM     29  P   UNL d   1      25.811   5.806  37.260  0.00  0.00     0.401 P 
ATOM     30  O   UNL d   1      26.931   4.738  37.213  0.00  0.00    -0.631 OA
BRANCH  29  31
ATOM     31  O   UNL d   1      26.308   6.464  35.841  0.00  0.00    -0.307 OA
ATOM     32  H   UNL d   1      26.278   5.729  35.194  0.00  0.00     0.222 HD
ENDBRANCH  29  31
BRANCH  29  33
ATOM     33  O   UNL d   1      24.558   6.998  37.312  0.00  0.00    -0.294 OA
BRANCH  33  34
ATOM     34  C   UNL d   1      23.216   6.534  37.448  0.00  0.00     0.215 C 
BRANCH  34  35
ATOM     35  C   UNL d   1      22.338   7.353  38.404  0.00  0.00     0.180 C 
ATOM     36  O   UNL d   1      22.694   7.021  39.761  0.00  0.00    -0.349 OA
ATOM     37  C   UNL d   1      22.848   8.229  40.505  0.00  0.00     0.288 C 
ATOM     38  C   UNL d   1      23.263   9.283  39.480  0.00  0.00     0.204 C 
ATOM     39  C   UNL d   1      22.456   8.875  38.263  0.00  0.00     0.182 C 
BRANCH  37  40
ATOM     40  O   UNL d   1      23.846   8.052  41.487  0.00  0.00    -0.369 OA
ATOM     41  H   UNL d   1      24.711   8.157  41.054  0.00  0.00     0.212 HD
ENDBRANCH  37  40
BRANCH  38  42
ATOM     42  O   UNL d   1      22.990  10.602  39.938  0.00  0.00    -0.388 OA
ATOM     43  H   UNL d   1      22.031  10.647  40.123  0.00  0.00     0.210 HD
ENDBRANCH  38  42
BRANCH  39  44
ATOM     44  O   UNL d   1      21.170   9.515  38.320  0.00  0.00    -0.390 OA
ATOM     45  H   UNL d   1      20.515   8.899  38.700  0.00  0.00     0.210 HD
ENDBRANCH  39  44
ENDBRANCH  34  35
ENDBRANCH  33  34
ENDBRANCH  29  33
ENDBRANCH  28  29
ENDBRANCH  24  28
ENDBRANCH   1  24
TORSDOF 17
ENDMDL
MODEL 5
REMARK VINA RESULT:      -7.4      2.398      3.715
REMARK  17 active torsions:
REMARK  status: ('A' for Active; 'I' for Inactive)
REMARK    1  A    between atoms: C_6  and  N_7 
REMARK    2  A    between atoms: N_10  and  C_11 
REMARK    3  A    between atoms: C_12  and  O_13 
REMARK    4  A    between atoms: C_14  and  O_15 
REMARK    5  A    between atoms: C_17  and  C_18 
REMARK    6  A    between atoms: C_18  and  O_19 
REMARK    7  A    between atoms: P_20  and  O_19 
REMARK    8  A    between atoms: P_20  and  O_22 
REMARK    9  A    between atoms: P_20  and  O_23 
REMARK   10  A    between atoms: P_24  and  O_23 
REMARK   11  A    between atoms: P_24  and  O_26 
REMARK   12  A    between atoms: P_24  and  O_27 
REMARK   13  A    between atoms: O_27  and  C_28 
REMARK   14  A    between atoms: C_28  and  C_36 
REMARK   15  A    between atoms: C_31  and  O_30 
REMARK   16  A    between atoms: O_32  and  C_33 
REMARK   17  A    between atoms: O_34  and  C_35 
ROOT
ATOM      1  O   UNL d   1      29.034   8.304  38.039  0.00  0.00    -0.294 OA
ENDROOT
BRANCH   1   2
ATOM      2  C   UNL d   1      27.864   7.781  38.631  0.00  0.00     0.215 C 
BRANCH   2   3
ATOM      3  C   UNL d   1      27.240   8.819  39.569  0.00  0.00     0.180 C 
ATOM      4  C   UNL d   1      27.287   8.426  41.042  0.00  0.00     0.182 C 
ATOM      5  C   UNL d   1      25.937   7.770  41.293  0.00  0.00     0.198 C 
ATOM      6  C   UNL d   1      25.026   8.574  40.364  0.00  0.00     0.262 C 
ATOM      7  O   UNL d   1      25.841   9.016  39.245  0.00  0.00    -0.353 OA
BRANCH   4   8
ATOM      8  O   UNL d   1      27.380   9.599  41.881  0.00  0.00    -0.390 OA
ATOM      9  H   UNL d   1      26.819  10.304  41.508  0.00  0.00     0.210 HD
ENDBRANCH   4   8
BRANCH   5  10
ATOM     10  O   UNL d   1      25.584   7.866  42.674  0.00  0.00    -0.388 OA
ATOM     11  H   UNL d   1      25.895   8.743  42.977  0.00  0.00     0.210 HD
ENDBRANCH   5  10
BRANCH   6  12
ATOM     12  N   UNL d   1      23.878   7.840  39.872  0.00  0.00    -0.294 N 
ATOM     13  C   UNL d   1      22.774   7.499  40.612  0.00  0.00     0.166 A 
ATOM     14  N   UNL d   1      22.524   7.773  41.903  0.00  0.00    -0.222 NA
ATOM     15  C   UNL d   1      21.954   6.809  39.732  0.00  0.00     0.144 A 
ATOM     16  C   UNL d   1      21.333   7.269  42.280  0.00  0.00     0.237 A 
ATOM     17  N   UNL d   1      20.432   6.584  41.537  0.00  0.00    -0.228 NA
ATOM     18  C   UNL d   1      20.733   6.332  40.244  0.00  0.00     0.135 A 
ATOM     19  N   UNL d   1      22.520   6.751  38.475  0.00  0.00    -0.236 NA
ATOM     20  C   UNL d   1      23.672   7.382  38.597  0.00  0.00     0.214 A 
BRANCH  18  21
ATOM     21  N   UNL d   1      19.804   5.635  39.479  0.00  0.00    -0.285 NA
ATOM     22  H   UNL d   1      18.934   6.141  39.355  0.00  0.00     0.125 HD
ATOM     23  H   UNL d   1      19.748   4.661  39.750  0.00  0.00     0.125 HD
ENDBRANCH  18  21
ENDBRANCH   6  12
ENDBRANCH   2   3
ENDBRANCH   1   2
BRANCH   1  24
ATOM     24  P   UNL d   1      28.883   9.440  36.911  0.00  0.00     0.401 P 
ATOM     25  O   UNL d   1      27.573   9.522  36.208  0.00  0.00    -0.631 OA
BRANCH  24  26
ATOM     26  O   UNL d   1      30.073   9.086  35.896  0.00  0.00    -0.307 OA
ATOM     27  H   UNL d   1      30.420   9.894  35.472  0.00  0.00     0.222 HD
ENDBRANCH  24  26
BRANCH  24  28
ATOM     28  O   UNL d   1      29.405  10.738  37.639  0.00  0.00    -0.195 OA
BRANCH  28  29
ATOM     29  P   UNL d   1      30.624  10.866  38.707  0.00  0.00     0.401 P 
ATOM     30  O   UNL d   1      29.642  10.944  39.901  0.00  0.00    -0.631 OA
BRANCH  29  31
ATOM     31  O   UNL d   1      30.765  12.501  38.649  0.00  0.00    -0.307 OA
ATOM     32  H   UNL d   1      31.180  12.691  37.782  0.00  0.00     0.222 HD
ENDBRANCH  29  31
BRANCH  29  33
ATOM     33  O   UNL d   1      31.722  10.779  37.372  0.00  0.00    -0.294 OA
BRANCH  33  34
ATOM     34  C   UNL d   1      32.386  11.983  36.991  0.00  0.00     0.215 C 
BRANCH  34  35
ATOM     35  C   UNL d   1      31.971  12.551  35.627  0.00  0.00     0.180 C 
ATOM     36  O   UNL d   1      30.852  11.790  35.127  0.00  0.00    -0.349 OA
ATOM     37  C   UNL d   1      29.851  12.694  34.661  0.00  0.00     0.288 C 
ATOM     38  C   UNL d   1      30.042  13.966  35.486  0.00  0.00     0.204 C 
ATOM     39  C   UNL d   1      31.551  14.026  35.629  0.00  0.00     0.182 C 
BRANCH  37  40
ATOM     40  O   UNL d   1      28.575  12.133  34.878  0.00  0.00    -0.369 OA
ATOM     41  H   UNL d   1      28.699  11.203  35.134  0.00  0.00     0.212 HD
ENDBRANCH  37  40
BRANCH  38  42
ATOM     42  O   UNL d   1      29.479  15.103  34.842  0.00  0.00    -0.388 OA
ATOM     43  H   UNL d   1      29.039  14.781  34.029  0.00  0.00     0.210 HD
ENDBRANCH  38  42
BRANCH  39  44
ATOM     44  O   UNL d   1      32.099  14.736  34.506  0.00  0.00    -0.390 OA
ATOM     45  H   UNL d   1      32.414  14.098  33.838  0.00  0.00     0.210 HD
ENDBRANCH  39  44
ENDBRANCH  34  35
ENDBRANCH  33  34
ENDBRANCH  29  33
ENDBRANCH  28  29
ENDBRANCH  24  28
ENDBRANCH   1  24
TORSDOF 17
ENDMDL
MODEL 6
REMARK VINA RESULT:      -7.3      3.675      5.530
REMARK  17 active torsions:
REMARK  status: ('A' for Active; 'I' for Inactive)
REMARK    1  A    between atoms: C_6  and  N_7 
REMARK    2  A    between atoms: N_10  and  C_11 
REMARK    3  A    between atoms: C_12  and  O_13 
REMARK    4  A    between atoms: C_14  and  O_15 
REMARK    5  A    between atoms: C_17  and  C_18 
REMARK    6  A    between atoms: C_18  and  O_19 
REMARK    7  A    between atoms: P_20  and  O_19 
REMARK    8  A    between atoms: P_20  and  O_22 
REMARK    9  A    between atoms: P_20  and  O_23 
REMARK   10  A    between atoms: P_24  and  O_23 
REMARK   11  A    between atoms: P_24  and  O_26 
REMARK   12  A    between atoms: P_24  and  O_27 
REMARK   13  A    between atoms: O_27  and  C_28 
REMARK   14  A    between atoms: C_28  and  C_36 
REMARK   15  A    between atoms: C_31  and  O_30 
REMARK   16  A    between atoms: O_32  and  C_33 
REMARK   17  A    between atoms: O_34  and  C_35 
ROOT
ATOM      1  O   UNL d   1      26.344   8.211  40.289  0.00  0.00    -0.294 OA
ENDROOT
BRANCH   1   2
ATOM      2  C   UNL d   1      24.969   7.934  40.445  0.00  0.00     0.215 C 
BRANCH   2   3
ATOM      3  C   UNL d   1      24.366   7.493  39.108  0.00  0.00     0.180 C 
ATOM      4  C   UNL d   1      23.708   8.624  38.324  0.00  0.00     0.182 C 
ATOM      5  C   UNL d   1      22.240   8.541  38.717  0.00  0.00     0.198 C 
ATOM      6  C   UNL d   1      22.055   7.034  38.900  0.00  0.00     0.262 C 
ATOM      7  O   UNL d   1      23.337   6.495  39.322  0.00  0.00    -0.353 OA
BRANCH   4   8
ATOM      8  O   UNL d   1      23.808   8.387  36.902  0.00  0.00    -0.390 OA
ATOM      9  H   UNL d   1      23.603   9.213  36.426  0.00  0.00     0.210 HD
ENDBRANCH   4   8
BRANCH   5  10
ATOM     10  O   UNL d   1      21.417   9.104  37.694  0.00  0.00    -0.388 OA
ATOM     11  H   UNL d   1      21.758   8.758  36.844  0.00  0.00     0.210 HD
ENDBRANCH   5  10
BRANCH   6  12
ATOM     12  N   UNL d   1      21.033   6.670  39.861  0.00  0.00    -0.294 N 
ATOM     13  C   UNL d   1      20.998   7.064  41.174  0.00  0.00     0.166 A 
ATOM     14  N   UNL d   1      21.867   7.854  41.826  0.00  0.00    -0.222 NA
ATOM     15  C   UNL d   1      19.856   6.474  41.694  0.00  0.00     0.144 A 
ATOM     16  C   UNL d   1      21.502   8.011  43.113  0.00  0.00     0.237 A 
ATOM     17  N   UNL d   1      20.421   7.505  43.753  0.00  0.00    -0.228 NA
ATOM     18  C   UNL d   1      19.579   6.714  43.052  0.00  0.00     0.135 A 
ATOM     19  N   UNL d   1      19.186   5.760  40.721  0.00  0.00    -0.236 NA
ATOM     20  C   UNL d   1      19.920   5.902  39.635  0.00  0.00     0.214 A 
BRANCH  18  21
ATOM     21  N   UNL d   1      18.465   6.200  43.708  0.00  0.00    -0.285 NA
ATOM     22  H   UNL d   1      17.722   6.881  43.818  0.00  0.00     0.125 HD
ATOM     23  H   UNL d   1      18.725   5.651  44.517  0.00  0.00     0.125 HD
ENDBRANCH  18  21
ENDBRANCH   6  12
ENDBRANCH   2   3
ENDBRANCH   1   2
BRANCH   1  24
ATOM     24  P   UNL d   1      27.283   8.200  41.594  0.00  0.00     0.401 P 
ATOM     25  O   UNL d   1      28.046   6.951  41.865  0.00  0.00    -0.631 OA
BRANCH  24  26
ATOM     26  O   UNL d   1      26.245   8.522  42.774  0.00  0.00    -0.307 OA
ATOM     27  H   UNL d   1      25.639   9.243  42.517  0.00  0.00     0.222 HD
ENDBRANCH  24  26
BRANCH  24  28
ATOM     28  O   UNL d   1      28.100   9.542  41.458  0.00  0.00    -0.195 OA
BRANCH  28  29
ATOM     29  P   UNL d   1      27.524  11.051  41.270  0.00  0.00     0.401 P 
ATOM     30  O   UNL d   1      27.420  11.261  42.800  0.00  0.00    -0.631 OA
BRANCH  29  31
ATOM     31  O   UNL d   1      25.938  10.644  41.166  0.00  0.00    -0.307 OA
ATOM     32  H   UNL d   1      25.926   9.665  41.147  0.00  0.00     0.222 HD
ENDBRANCH  29  31
BRANCH  29  33
ATOM     33  O   UNL d   1      27.641  10.817  39.560  0.00  0.00    -0.294 OA
BRANCH  33  34
ATOM     34  C   UNL d   1      28.942  10.878  38.977  0.00  0.00     0.215 C 
BRANCH  34  35
ATOM     35  C   UNL d   1      29.211   9.843  37.877  0.00  0.00     0.180 C 
ATOM     36  O   UNL d   1      29.344   8.542  38.484  0.00  0.00    -0.349 OA
ATOM     37  C   UNL d   1      28.556   7.607  37.748  0.00  0.00     0.288 C 
ATOM     38  C   UNL d   1      27.423   8.430  37.136  0.00  0.00     0.204 C 
ATOM     39  C   UNL d   1      28.125   9.732  36.800  0.00  0.00     0.182 C 
BRANCH  37  40
ATOM     40  O   UNL d   1      28.054   6.623  38.627  0.00  0.00    -0.369 OA
ATOM     41  H   UNL d   1      28.432   6.790  39.508  0.00  0.00     0.212 HD
ENDBRANCH  37  40
BRANCH  38  42
ATOM     42  O   UNL d   1      26.846   7.778  36.011  0.00  0.00    -0.388 OA
ATOM     43  H   UNL d   1      27.009   8.351  35.234  0.00  0.00     0.210 HD
ENDBRANCH  38  42
BRANCH  39  44
ATOM     44  O   UNL d   1      28.692   9.629  35.482  0.00  0.00    -0.390 OA
ATOM     45  H   UNL d   1      29.583  10.026  35.478  0.00  0.00     0.210 HD
ENDBRANCH  39  44
ENDBRANCH  34  35
ENDBRANCH  33  34
ENDBRANCH  29  33
ENDBRANCH  28  29
ENDBRANCH  24  28
ENDBRANCH   1  24
TORSDOF 17
ENDMDL
MODEL 7
REMARK VINA RESULT:      -7.2      2.743      6.253
REMARK  17 active torsions:
REMARK  status: ('A' for Active; 'I' for Inactive)
REMARK    1  A    between atoms: C_6  and  N_7 
REMARK    2  A    between atoms: N_10  and  C_11 
REMARK    3  A    between atoms: C_12  and  O_13 
REMARK    4  A    between atoms: C_14  and  O_15 
REMARK    5  A    between atoms: C_17  and  C_18 
REMARK    6  A    between atoms: C_18  and  O_19 
REMARK    7  A    between atoms: P_20  and  O_19 
REMARK    8  A    between atoms: P_20  and  O_22 
REMARK    9  A    between atoms: P_20  and  O_23 
REMARK   10  A    between atoms: P_24  and  O_23 
REMARK   11  A    between atoms: P_24  and  O_26 
REMARK   12  A    between atoms: P_24  and  O_27 
REMARK   13  A    between atoms: O_27  and  C_28 
REMARK   14  A    between atoms: C_28  and  C_36 
REMARK   15  A    between atoms: C_31  and  O_30 
REMARK   16  A    between atoms: O_32  and  C_33 
REMARK   17  A    between atoms: O_34  and  C_35 
ROOT
ATOM      1  O   UNL d   1      30.275  10.282  39.571  0.00  0.00    -0.294 OA
ENDROOT
BRANCH   1   2
ATOM      2  C   UNL d   1      30.777  10.608  40.850  0.00  0.00     0.215 C 
BRANCH   2   3
ATOM      3  C   UNL d   1      29.918  11.703  41.489  0.00  0.00     0.180 C 
ATOM      4  C   UNL d   1      29.722  11.535  42.992  0.00  0.00     0.182 C 
ATOM      5  C   UNL d   1      28.400  10.791  43.113  0.00  0.00     0.198 C 
ATOM      6  C   UNL d   1      27.620  11.356  41.925  0.00  0.00     0.262 C 
ATOM      7  O   UNL d   1      28.592  11.711  40.904  0.00  0.00    -0.353 OA
BRANCH   4   8
ATOM      8  O   UNL d   1      29.575  12.821  43.635  0.00  0.00    -0.390 OA
ATOM      9  H   UNL d   1      30.416  13.060  44.067  0.00  0.00     0.210 HD
ENDBRANCH   4   8
BRANCH   5  10
ATOM     10  O   UNL d   1      27.794  11.051  44.379  0.00  0.00    -0.388 OA
ATOM     11  H   UNL d   1      27.206  11.823  44.249  0.00  0.00     0.210 HD
ENDBRANCH   5  10
BRANCH   6  12
ATOM     12  N   UNL d   1      26.637  10.448  41.369  0.00  0.00    -0.294 N 
ATOM     13  C   UNL d   1      25.390  10.802  40.921  0.00  0.00     0.166 A 
ATOM     14  N   UNL d   1      24.835  12.025  40.892  0.00  0.00    -0.222 NA
ATOM     15  C   UNL d   1      24.815   9.616  40.490  0.00  0.00     0.144 A 
ATOM     16  C   UNL d   1      23.587  11.976  40.386  0.00  0.00     0.237 A 
ATOM     17  N   UNL d   1      22.904  10.901  39.925  0.00  0.00    -0.228 NA
ATOM     18  C   UNL d   1      23.507   9.693  39.979  0.00  0.00     0.135 A 
ATOM     19  N   UNL d   1      25.693   8.562  40.639  0.00  0.00    -0.236 NA
ATOM     20  C   UNL d   1      26.776   9.100  41.166  0.00  0.00     0.214 A 
BRANCH  18  21
ATOM     21  N   UNL d   1      22.807   8.591  39.499  0.00  0.00    -0.285 NA
ATOM     22  H   UNL d   1      23.281   7.712  39.679  0.00  0.00     0.125 HD
ATOM     23  H   UNL d   1      22.448   8.750  38.566  0.00  0.00     0.125 HD
ENDBRANCH  18  21
ENDBRANCH   6  12
ENDBRANCH   2   3
ENDBRANCH   1   2
BRANCH   1  24
ATOM     24  P   UNL d   1      30.890  11.035  38.291  0.00  0.00     0.401 P 
ATOM     25  O   UNL d   1      32.337  11.380  38.342  0.00  0.00    -0.631 OA
BRANCH  24  26
ATOM     26  O   UNL d   1      29.976  12.348  38.185  0.00  0.00    -0.307 OA
ATOM     27  H   UNL d   1      29.348  12.397  38.931  0.00  0.00     0.222 HD
ENDBRANCH  24  26
BRANCH  24  28
ATOM     28  O   UNL d   1      30.391  10.152  37.083  0.00  0.00    -0.195 OA
BRANCH  28  29
ATOM     29  P   UNL d   1      28.859   9.822  36.648  0.00  0.00     0.401 P 
ATOM     30  O   UNL d   1      28.651  11.252  36.094  0.00  0.00    -0.631 OA
BRANCH  29  31
ATOM     31  O   UNL d   1      28.160  10.218  38.079  0.00  0.00    -0.307 OA
ATOM     32  H   UNL d   1      27.419   9.586  38.185  0.00  0.00     0.222 HD
ENDBRANCH  29  31
BRANCH  29  33
ATOM     33  O   UNL d   1      29.092   8.223  37.267  0.00  0.00    -0.294 OA
BRANCH  33  34
ATOM     34  C   UNL d   1      27.965   7.578  37.858  0.00  0.00     0.215 C 
BRANCH  34  35
ATOM     35  C   UNL d   1      26.771   7.366  36.917  0.00  0.00     0.180 C 
ATOM     36  O   UNL d   1      26.766   5.993  36.474  0.00  0.00    -0.349 OA
ATOM     37  C   UNL d   1      25.445   5.471  36.605  0.00  0.00     0.288 C 
ATOM     38  C   UNL d   1      24.809   6.267  37.745  0.00  0.00     0.204 C 
ATOM     39  C   UNL d   1      25.394   7.649  37.529  0.00  0.00     0.182 C 
BRANCH  37  40
ATOM     40  O   UNL d   1      25.513   4.097  36.919  0.00  0.00    -0.369 OA
ATOM     41  H   UNL d   1      24.604   3.749  36.927  0.00  0.00     0.212 HD
ENDBRANCH  37  40
BRANCH  38  42
ATOM     42  O   UNL d   1      23.388   6.226  37.689  0.00  0.00    -0.388 OA
ATOM     43  H   UNL d   1      23.103   6.974  37.128  0.00  0.00     0.210 HD
ENDBRANCH  38  42
BRANCH  39  44
ATOM     44  O   UNL d   1      24.549   8.376  36.621  0.00  0.00    -0.390 OA
ATOM     45  H   UNL d   1      24.187   7.765  35.951  0.00  0.00     0.210 HD
ENDBRANCH  39  44
ENDBRANCH  34  35
ENDBRANCH  33  34
ENDBRANCH  29  33
ENDBRANCH  28  29
ENDBRANCH  24  28
ENDBRANCH   1  24
TORSDOF 17
ENDMDL
MODEL 8
REMARK VINA RESULT:      -7.1      3.934      6.220
REMARK  17 active torsions:
REMARK  status: ('A' for Active; 'I' for Inactive)
REMARK    1  A    between atoms: C_6  and  N_7 
REMARK    2  A    between atoms: N_10  and  C_11 
REMARK    3  A    between atoms: C_12  and  O_13 
REMARK    4  A    between atoms: C_14  and  O_15 
REMARK    5  A    between atoms: C_17  and  C_18 
REMARK    6  A    between atoms: C_18  and  O_19 
REMARK    7  A    between atoms: P_20  and  O_19 
REMARK    8  A    between atoms: P_20  and  O_22 
REMARK    9  A    between atoms: P_20  and  O_23 
REMARK   10  A    between atoms: P_24  and  O_23 
REMARK   11  A    between atoms: P_24  and  O_26 
REMARK   12  A    between atoms: P_24  and  O_27 
REMARK   13  A    between atoms: O_27  and  C_28 
REMARK   14  A    between atoms: C_28  and  C_36 
REMARK   15  A    between atoms: C_31  and  O_30 
REMARK   16  A    between atoms: O_32  and  C_33 
REMARK   17  A    between atoms: O_34  and  C_35 
ROOT
ATOM      1  O   UNL d   1      29.209   8.966  41.393  0.00  0.00    -0.294 OA
ENDROOT
BRANCH   1   2
ATOM      2  C   UNL d   1      29.240   9.462  40.072  0.00  0.00     0.215 C 
BRANCH   2   3
ATOM      3  C   UNL d   1      28.990   8.324  39.077  0.00  0.00     0.180 C 
ATOM      4  C   UNL d   1      28.582   8.799  37.686  0.00  0.00     0.182 C 
ATOM      5  C   UNL d   1      27.061   8.761  37.713  0.00  0.00     0.198 C 
ATOM      6  C   UNL d   1      26.800   7.558  38.621  0.00  0.00     0.262 C 
ATOM      7  O   UNL d   1      27.918   7.470  39.546  0.00  0.00    -0.353 OA
BRANCH   4   8
ATOM      8  O   UNL d   1      29.037   7.873  36.675  0.00  0.00    -0.390 OA
ATOM      9  H   UNL d   1      29.874   8.201  36.296  0.00  0.00     0.210 HD
ENDBRANCH   4   8
BRANCH   5  10
ATOM     10  O   UNL d   1      26.541   8.611  36.392  0.00  0.00    -0.388 OA
ATOM     11  H   UNL d   1      25.820   7.951  36.453  0.00  0.00     0.210 HD
ENDBRANCH   5  10
BRANCH   6  12
ATOM     12  N   UNL d   1      25.557   7.627  39.363  0.00  0.00    -0.294 N 
ATOM     13  C   UNL d   1      24.320   7.285  38.878  0.00  0.00     0.166 A 
ATOM     14  N   UNL d   1      24.008   6.816  37.658  0.00  0.00    -0.222 NA
ATOM     15  C   UNL d   1      23.447   7.519  39.929  0.00  0.00     0.144 A 
ATOM     16  C   UNL d   1      22.683   6.598  37.551  0.00  0.00     0.237 A 
ATOM     17  N   UNL d   1      21.719   6.774  38.486  0.00  0.00    -0.228 NA
ATOM     18  C   UNL d   1      22.086   7.251  39.696  0.00  0.00     0.135 A 
ATOM     19  N   UNL d   1      24.128   7.965  41.043  0.00  0.00    -0.236 NA
ATOM     20  C   UNL d   1      25.391   8.015  40.667  0.00  0.00     0.214 A 
BRANCH  18  21
ATOM     21  N   UNL d   1      21.096   7.425  40.658  0.00  0.00    -0.285 NA
ATOM     22  H   UNL d   1      21.433   7.894  41.492  0.00  0.00     0.125 HD
ATOM     23  H   UNL d   1      20.539   6.590  40.780  0.00  0.00     0.125 HD
ENDBRANCH  18  21
ENDBRANCH   6  12
ENDBRANCH   2   3
ENDBRANCH   1   2
BRANCH   1  24
ATOM     24  P   UNL d   1      30.372   9.413  42.409  0.00  0.00     0.401 P 
ATOM     25  O   UNL d   1      31.769   9.368  41.896  0.00  0.00    -0.631 OA
BRANCH  24  26
ATOM     26  O   UNL d   1      30.166   8.409  43.642  0.00  0.00    -0.307 OA
ATOM     27  H   UNL d   1      29.681   7.609  43.362  0.00  0.00     0.222 HD
ENDBRANCH  24  26
BRANCH  24  28
ATOM     28  O   UNL d   1      29.843  10.788  42.974  0.00  0.00    -0.195 OA
BRANCH  28  29
ATOM     29  P   UNL d   1      28.544  11.052  43.914  0.00  0.00     0.401 P 
ATOM     30  O   UNL d   1      29.241  10.426  45.147  0.00  0.00    -0.631 OA
BRANCH  29  31
ATOM     31  O   UNL d   1      27.768   9.646  43.575  0.00  0.00    -0.307 OA
ATOM     32  H   UNL d   1      27.810   9.125  44.403  0.00  0.00     0.222 HD
ENDBRANCH  29  31
BRANCH  29  33
ATOM     33  O   UNL d   1      27.765  11.752  42.537  0.00  0.00    -0.294 OA
BRANCH  33  34
ATOM     34  C   UNL d   1      26.505  11.207  42.150  0.00  0.00     0.215 C 
BRANCH  34  35
ATOM     35  C   UNL d   1      25.625  12.139  41.306  0.00  0.00     0.180 C 
ATOM     36  O   UNL d   1      24.999  11.369  40.260  0.00  0.00    -0.349 OA
ATOM     37  C   UNL d   1      23.611  11.696  40.214  0.00  0.00     0.288 C 
ATOM     38  C   UNL d   1      23.251  12.126  41.635  0.00  0.00     0.204 C 
ATOM     39  C   UNL d   1      24.506  12.858  42.071  0.00  0.00     0.182 C 
BRANCH  37  40
ATOM     40  O   UNL d   1      22.873  10.557  39.824  0.00  0.00    -0.369 OA
ATOM     41  H   UNL d   1      23.211   9.797  40.329  0.00  0.00     0.212 HD
ENDBRANCH  37  40
BRANCH  38  42
ATOM     42  O   UNL d   1      22.077  12.928  41.664  0.00  0.00    -0.388 OA
ATOM     43  H   UNL d   1      22.291  13.764  41.203  0.00  0.00     0.210 HD
ENDBRANCH  38  42
BRANCH  39  44
ATOM     44  O   UNL d   1      24.399  14.238  41.683  0.00  0.00    -0.390 OA
ATOM     45  H   UNL d   1      25.291  14.607  41.537  0.00  0.00     0.210 HD
ENDBRANCH  39  44
ENDBRANCH  34  35
ENDBRANCH  33  34
ENDBRANCH  29  33
ENDBRANCH  28  29
ENDBRANCH  24  28
ENDBRANCH   1  24
TORSDOF 17
ENDMDL
MODEL 9
REMARK VINA RESULT:      -7.1      4.326      9.476
REMARK  17 active torsions:
REMARK  status: ('A' for Active; 'I' for Inactive)
REMARK    1  A    between atoms: C_6  and  N_7 
REMARK    2  A    between atoms: N_10  and  C_11 
REMARK    3  A    between atoms: C_12  and  O_13 
REMARK    4  A    between atoms: C_14  and  O_15 
REMARK    5  A    between atoms: C_17  and  C_18 
REMARK    6  A    between atoms: C_18  and  O_19 
REMARK    7  A    between atoms: P_20  and  O_19 
REMARK    8  A    between atoms: P_20  and  O_22 
REMARK    9  A    between atoms: P_20  and  O_23 
REMARK   10  A    between atoms: P_24  and  O_23 
REMARK   11  A    between atoms: P_24  and  O_26 
REMARK   12  A    between atoms: P_24  and  O_27 
REMARK   13  A    between atoms: O_27  and  C_28 
REMARK   14  A    between atoms: C_28  and  C_36 
REMARK   15  A    between atoms: C_31  and  O_30 
REMARK   16  A    between atoms: O_32  and  C_33 
REMARK   17  A    between atoms: O_34  and  C_35 
ROOT
ATOM      1  O   UNL d   1      25.673   7.228  38.948  0.00  0.00    -0.294 OA
ENDROOT
BRANCH   1   2
ATOM      2  C   UNL d   1      26.624   7.953  38.197  0.00  0.00     0.215 C 
BRANCH   2   3
ATOM      3  C   UNL d   1      27.958   8.009  38.949  0.00  0.00     0.180 C 
ATOM      4  C   UNL d   1      27.988   7.158  40.214  0.00  0.00     0.182 C 
ATOM      5  C   UNL d   1      27.619   8.131  41.324  0.00  0.00     0.198 C 
ATOM      6  C   UNL d   1      28.250   9.429  40.816  0.00  0.00     0.262 C 
ATOM      7  O   UNL d   1      28.247   9.366  39.364  0.00  0.00    -0.353 OA
BRANCH   4   8
ATOM      8  O   UNL d   1      29.324   6.669  40.469  0.00  0.00    -0.390 OA
ATOM      9  H   UNL d   1      29.268   5.771  40.847  0.00  0.00     0.210 HD
ENDBRANCH   4   8
BRANCH   5  10
ATOM     10  O   UNL d   1      28.144   7.685  42.575  0.00  0.00    -0.388 OA
ATOM     11  H   UNL d   1      27.944   6.728  42.632  0.00  0.00     0.210 HD
ENDBRANCH   5  10
BRANCH   6  12
ATOM     12  N   UNL d   1      27.573  10.634  41.254  0.00  0.00    -0.294 N 
ATOM     13  C   UNL d   1      26.256  10.936  41.019  0.00  0.00     0.166 A 
ATOM     14  N   UNL d   1      25.340  10.202  40.366  0.00  0.00    -0.222 NA
ATOM     15  C   UNL d   1      26.062  12.174  41.613  0.00  0.00     0.144 A 
ATOM     16  C   UNL d   1      24.150  10.834  40.334  0.00  0.00     0.237 A 
ATOM     17  N   UNL d   1      23.815  12.031  40.869  0.00  0.00    -0.228 NA
ATOM     18  C   UNL d   1      24.774  12.731  41.514  0.00  0.00     0.135 A 
ATOM     19  N   UNL d   1      27.219  12.611  42.225  0.00  0.00    -0.236 NA
ATOM     20  C   UNL d   1      28.102  11.661  41.991  0.00  0.00     0.214 A 
BRANCH  18  21
ATOM     21  N   UNL d   1      24.428  13.958  42.070  0.00  0.00    -0.285 NA
ATOM     22  H   UNL d   1      23.649  14.402  41.595  0.00  0.00     0.125 HD
ATOM     23  H   UNL d   1      25.242  14.525  42.269  0.00  0.00     0.125 HD
ENDBRANCH  18  21
ENDBRANCH   6  12
ENDBRANCH   2   3
ENDBRANCH   1   2
BRANCH   1  24
ATOM     24  P   UNL d   1      24.207   7.013  38.326  0.00  0.00     0.401 P 
ATOM     25  O   UNL d   1      24.112   6.187  37.090  0.00  0.00    -0.631 OA
BRANCH  24  26
ATOM     26  O   UNL d   1      23.712   8.516  38.067  0.00  0.00    -0.307 OA
ATOM     27  H   UNL d   1      24.472   9.123  37.981  0.00  0.00     0.222 HD
ENDBRANCH  24  26
BRANCH  24  28
ATOM     28  O   UNL d   1      23.352   6.563  39.573  0.00  0.00    -0.195 OA
BRANCH  28  29
ATOM     29  P   UNL d   1      21.740   6.636  39.762  0.00  0.00     0.401 P 
ATOM     30  O   UNL d   1      21.505   6.623  38.232  0.00  0.00    -0.631 OA
BRANCH  29  31
ATOM     31  O   UNL d   1      21.623   8.273  39.818  0.00  0.00    -0.307 OA
ATOM     32  H   UNL d   1      21.504   8.488  40.766  0.00  0.00     0.222 HD
ENDBRANCH  29  31
BRANCH  29  33
ATOM     33  O   UNL d   1      22.002   6.651  41.473  0.00  0.00    -0.294 OA
BRANCH  33  34
ATOM     34  C   UNL d   1      20.997   6.059  42.294  0.00  0.00     0.215 C 
BRANCH  34  35
ATOM     35  C   UNL d   1      19.740   6.914  42.503  0.00  0.00     0.180 C 
ATOM     36  O   UNL d   1      18.780   6.590  41.477  0.00  0.00    -0.349 OA
ATOM     37  C   UNL d   1      17.504   6.395  42.085  0.00  0.00     0.288 C 
ATOM     38  C   UNL d   1      17.803   5.925  43.508  0.00  0.00     0.204 C 
ATOM     39  C   UNL d   1      19.038   6.733  43.855  0.00  0.00     0.182 C 
BRANCH  37  40
ATOM     40  O   UNL d   1      16.785   5.418  41.365  0.00  0.00    -0.369 OA
ATOM     41  H   UNL d   1      17.126   5.409  40.453  0.00  0.00     0.212 HD
ENDBRANCH  37  40
BRANCH  38  42
ATOM     42  O   UNL d   1      16.702   6.149  44.381  0.00  0.00    -0.388 OA
ATOM     43  H   UNL d   1      15.912   5.767  43.948  0.00  0.00     0.210 HD
ENDBRANCH  38  42
BRANCH  39  44
ATOM     44  O   UNL d   1      18.629   7.992  44.414  0.00  0.00    -0.390 OA
ATOM     45  H   UNL d   1      19.123   8.717  43.985  0.00  0.00     0.210 HD
ENDBRANCH  39  44
ENDBRANCH  34  35
ENDBRANCH  33  34
ENDBRANCH  29  33
ENDBRANCH  28  29
ENDBRANCH  24  28
ENDBRANCH   1  24
TORSDOF 17
ENDMDL
