REMARK  17 active torsions:
REMARK  status: ('A' for Active; 'I' for Inactive)
REMARK    1  A    between atoms: C_6  and  N_7 
REMARK    2  A    between atoms: N_10  and  C_11 
REMARK    3  A    between atoms: C_12  and  O_13 
REMARK    4  A    between atoms: C_14  and  O_15 
REMARK    5  A    between atoms: C_17  and  C_18 
REMARK    6  A    between atoms: C_18  and  O_19 
REMARK    7  A    between atoms: P_20  and  O_19 
REMARK    8  A    between atoms: P_20  and  O_22 
REMARK    9  A    between atoms: P_20  and  O_23 
REMARK   10  A    between atoms: P_24  and  O_23 
REMARK   11  A    between atoms: P_24  and  O_26 
REMARK   12  A    between atoms: P_24  and  O_27 
REMARK   13  A    between atoms: O_27  and  C_28 
REMARK   14  A    between atoms: C_28  and  C_36 
REMARK   15  A    between atoms: C_31  and  O_30 
REMARK   16  A    between atoms: O_32  and  C_33 
REMARK   17  A    between atoms: O_34  and  C_35 
ROOT
ATOM      1  O   UNL d   1       0.972   4.337  -6.992  0.00  0.00    -0.294 OA
ENDROOT
BRANCH   1   2
ATOM      2  C   UNL d   1       1.845   5.291  -7.559  0.00  0.00     0.215 C 
BRANCH   2   3
ATOM      3  C   UNL d   1       1.912   5.106  -9.078  0.00  0.00     0.180 C 
ATOM      4  C   UNL d   1       0.551   5.145  -9.765  0.00  0.00     0.182 C 
ATOM      5  C   UNL d   1       0.145   3.682  -9.866  0.00  0.00     0.198 C 
ATOM      6  C   UNL d   1       1.499   3.001 -10.073  0.00  0.00     0.262 C 
ATOM      7  O   UNL d   1       2.496   3.821  -9.405  0.00  0.00    -0.353 OA
BRANCH   4   8
ATOM      8  O   UNL d   1       0.669   5.673 -11.105  0.00  0.00    -0.390 OA
ATOM      9  H   UNL d   1       1.569   5.499 -11.438  0.00  0.00     0.210 HD
ENDBRANCH   4   8
BRANCH   5  10
ATOM     10  O   UNL d   1      -0.769   3.490 -10.946  0.00  0.00    -0.388 OA
ATOM     11  H   UNL d   1      -0.630   4.239 -11.561  0.00  0.00     0.210 HD
ENDBRANCH   5  10
BRANCH   6  12
ATOM     12  N   UNL d   1       1.568   1.643  -9.571  0.00  0.00    -0.294 N 
ATOM     13  C   UNL d   1       1.309   0.511 -10.301  0.00  0.00     0.166 A 
ATOM     14  N   UNL d   1       0.960   0.420 -11.595  0.00  0.00    -0.222 NA
ATOM     15  C   UNL d   1       1.494  -0.537  -9.412  0.00  0.00     0.144 A 
ATOM     16  C   UNL d   1       0.785  -0.866 -11.957  0.00  0.00     0.237 A 
ATOM     17  N   UNL d   1       0.933  -1.983 -11.206  0.00  0.00    -0.228 NA
ATOM     18  C   UNL d   1       1.283  -1.836  -9.909  0.00  0.00     0.135 A 
ATOM     19  N   UNL d   1       1.886  -0.068  -8.175  0.00  0.00    -0.236 NA
ATOM     20  C   UNL d   1       1.922   1.243  -8.309  0.00  0.00     0.214 A 
BRANCH  18  21
ATOM     21  N   UNL d   1       1.442  -2.984  -9.140  0.00  0.00    -0.285 NA
ATOM     22  H   UNL d   1       2.041  -2.841  -8.334  0.00  0.00     0.125 HD
ATOM     23  H   UNL d   1       1.611  -3.801  -9.713  0.00  0.00     0.125 HD
ENDBRANCH  18  21
ENDBRANCH   6  12
ENDBRANCH   2   3
ENDBRANCH   1   2
BRANCH   1  24
ATOM     24  P   UNL d   1       0.800   4.308  -5.394  0.00  0.00     0.401 P 
ATOM     25  O   UNL d   1       0.243   5.531  -4.753  0.00  0.00    -0.631 OA
BRANCH  24  26
ATOM     26  O   UNL d   1       2.291   4.006  -4.887  0.00  0.00    -0.307 OA
ATOM     27  H   UNL d   1       2.368   4.152  -3.925  0.00  0.00     0.222 HD
ENDBRANCH  24  26
BRANCH  24  28
ATOM     28  O   UNL d   1       0.051   2.943  -5.140  0.00  0.00    -0.195 OA
BRANCH  28  29
ATOM     29  P   UNL d   1      -1.507   2.715  -4.737  0.00  0.00     0.401 P 
ATOM     30  O   UNL d   1      -1.146   1.555  -3.778  0.00  0.00    -0.631 OA
BRANCH  29  31
ATOM     31  O   UNL d   1      -1.872   1.669  -5.948  0.00  0.00    -0.307 OA
ATOM     32  H   UNL d   1      -1.560   0.795  -5.633  0.00  0.00     0.222 HD
ENDBRANCH  29  31
BRANCH  29  33
ATOM     33  O   UNL d   1      -1.911   4.012  -5.809  0.00  0.00    -0.294 OA
BRANCH  33  34
ATOM     34  C   UNL d   1      -3.257   4.080  -6.277  0.00  0.00     0.215 C 
BRANCH  34  35
ATOM     35  C   UNL d   1      -4.318   4.256  -5.182  0.00  0.00     0.180 C 
ATOM     36  O   UNL d   1      -4.242   3.137  -4.276  0.00  0.00    -0.349 OA
ATOM     37  C   UNL d   1      -4.253   3.627  -2.936  0.00  0.00     0.288 C 
ATOM     38  C   UNL d   1      -3.648   5.028  -3.015  0.00  0.00     0.204 C 
ATOM     39  C   UNL d   1      -4.188   5.531  -4.340  0.00  0.00     0.182 C 
BRANCH  37  40
ATOM     40  O   UNL d   1      -3.473   2.780  -2.120  0.00  0.00    -0.369 OA
ATOM     41  H   UNL d   1      -3.080   3.325  -1.416  0.00  0.00     0.212 HD
ENDBRANCH  37  40
BRANCH  38  42
ATOM     42  O   UNL d   1      -4.020   5.828  -1.899  0.00  0.00    -0.388 OA
ATOM     43  H   UNL d   1      -4.470   6.621  -2.254  0.00  0.00     0.210 HD
ENDBRANCH  38  42
BRANCH  39  44
ATOM     44  O   UNL d   1      -5.465   6.153  -4.117  0.00  0.00    -0.390 OA
ATOM     45  H   UNL d   1      -6.058   5.527  -3.660  0.00  0.00     0.210 HD
ENDBRANCH  39  44
ENDBRANCH  34  35
ENDBRANCH  33  34
ENDBRANCH  29  33
ENDBRANCH  28  29
ENDBRANCH  24  28
ENDBRANCH   1  24
TORSDOF 17
