@<TRIPOS>MOLECULE
APR
 59 62 0 0 0
SMALL
GASTEIGER

@<TRIPOS>ATOM
      1 N           0.9335   -1.9831  -11.2063 N.ar    1  UNL1       -0.2188
      2 C           0.7851   -0.8659  -11.9572 C.ar    1  UNL1        0.1205
      3 N           0.9598    0.4198  -11.5948 N.ar    1  UNL1       -0.2159
      4 C           1.3086    0.5110  -10.3008 C.ar    1  UNL1        0.1674
      5 C           1.4939   -0.5375   -9.4119 C.ar    1  UNL1        0.1473
      6 C           1.2830   -1.8359   -9.9091 C.ar    1  UNL1        0.1472
      7 N           1.4425   -2.9840   -9.1404 N.pl3   1  UNL1       -0.3413
      8 N           1.8859   -0.0677   -8.1751 N.ar    1  UNL1       -0.2306
      9 C           1.9221    1.2429   -8.3093 C.ar    1  UNL1        0.1004
     10 N           1.5680    1.6427   -9.5709 N.ar    1  UNL1       -0.2855
     11 C           1.4992    3.0014  -10.0727 C.3     1  UNL1        0.1667
     12 C           0.1454    3.6818   -9.8657 C.3     1  UNL1        0.1285
     13 O          -0.7688    3.4899  -10.9460 O.3     1  UNL1       -0.3847
     14 C           0.5515    5.1452   -9.7655 C.3     1  UNL1        0.1135
     15 O           0.6691    5.6728  -11.1047 O.3     1  UNL1       -0.3864
     16 O           2.4961    3.8205   -9.4045 O.3     1  UNL1       -0.3456
     17 C           1.9122    5.1061   -9.0778 C.3     1  UNL1        0.1134
     18 C           1.8445    5.2911   -7.5587 C.3     1  UNL1        0.0879
     19 O           0.9723    4.3373   -6.9916 O.3     1  UNL1       -0.2837
     20 P           0.7999    4.3080   -5.3944 P.3     1  UNL1        0.4835
     21 O           0.2431    5.5313   -4.7529 O.2     1  UNL1       -0.2269
     22 O           2.2908    4.0056   -4.8870 O.3     1  UNL1       -0.3022
     23 O           0.0508    2.9426   -5.1399 O.3     1  UNL1       -0.1861
     24 P          -1.5074    2.7153   -4.7373 P.3     1  UNL1        0.4835
     25 O          -1.1463    1.5550   -3.7778 O.2     1  UNL1       -0.2269
     26 O          -1.8719    1.6688   -5.9480 O.3     1  UNL1       -0.3022
     27 O          -1.9108    4.0118   -5.8094 O.3     1  UNL1       -0.2837
     28 C          -3.2574    4.0802   -6.2772 C.3     1  UNL1        0.0879
     29 O          -4.2423    3.1372   -4.2755 O.3     1  UNL1       -0.3407
     30 O          -3.4725    2.7805   -2.1202 O.3     1  UNL1       -0.3649
     31 C          -4.2528    3.6266   -2.9357 C.3     1  UNL1        0.1854
     32 O          -4.0196    5.8278   -1.8991 O.3     1  UNL1       -0.3841
     33 C          -3.6484    5.0282   -3.0148 C.3     1  UNL1        0.1339
     34 O          -5.4648    6.1533   -4.1167 O.3     1  UNL1       -0.3864
     35 C          -4.1878    5.5311   -4.3397 C.3     1  UNL1        0.1141
     36 C          -4.3183    4.2562   -5.1818 C.3     1  UNL1        0.1139
     37 H           0.4915   -1.0366  -12.9901 H       1  UNL1        0.1048
     38 H           2.0413   -2.8411   -8.3341 H       1  UNL1        0.1438
     39 H           1.6115   -3.8006   -9.7126 H       1  UNL1        0.1438
     40 H           2.2033    1.9425   -7.5338 H       1  UNL1        0.1030
     41 H           1.7729    2.9704  -11.1347 H       1  UNL1        0.0866
     42 H          -0.3377    3.3391   -8.9449 H       1  UNL1        0.0665
     43 H          -0.6305    4.2390  -11.5610 H       1  UNL1        0.2101
     44 H          -0.1927    5.7604   -9.2519 H       1  UNL1        0.0647
     45 H           1.5695    5.4992  -11.4384 H       1  UNL1        0.2100
     46 H           2.5842    5.8696   -9.4859 H       1  UNL1        0.0647
     47 H           2.8433    5.1625   -7.1295 H       1  UNL1        0.0592
     48 H           1.4763    6.2929   -7.3160 H       1  UNL1        0.0592
     49 H           2.3679    4.1515   -3.9246 H       1  UNL1        0.2220
     50 H          -1.5596    0.7954   -5.6325 H       1  UNL1        0.2220
     51 H          -3.3108    4.9285   -6.9698 H       1  UNL1        0.0592
     52 H          -3.4726    3.1824   -6.8657 H       1  UNL1        0.0592
     53 H          -3.0801    3.3254   -1.4162 H       1  UNL1        0.2126
     54 H          -5.2811    3.6313   -2.5562 H       1  UNL1        0.0935
     55 H          -4.4702    6.6207   -2.2542 H       1  UNL1        0.2101
     56 H          -2.5545    4.9694   -3.0444 H       1  UNL1        0.0671
     57 H          -6.0576    5.5272   -3.6602 H       1  UNL1        0.2100
     58 H          -3.5485    6.2911   -4.7959 H       1  UNL1        0.0648
     59 H          -5.3063    4.2188   -5.6557 H       1  UNL1        0.0647
@<TRIPOS>BOND
     1     1     2   ar
     2     1     6   ar
     3     2     3   ar
     4     2    37    1
     5     3     4   ar
     6     4     5   ar
     7     4    10   ar
     8     5     6   ar
     9     5     8   ar
    10     6     7    1
    11     7    38    1
    12     7    39    1
    13     8     9   ar
    14     9    10   ar
    15     9    40    1
    16    10    11    1
    17    11    12    1
    18    11    16    1
    19    11    41    1
    20    12    13    1
    21    12    14    1
    22    12    42    1
    23    13    43    1
    24    14    15    1
    25    14    17    1
    26    14    44    1
    27    15    45    1
    28    16    17    1
    29    18    19    1
    30    18    47    1
    31    18    48    1
    32    20    22    1
    33    20    23    1
    34    22    49    1
    35    24    26    1
    36    24    27    1
    37    26    50    1
    38    27    28    1
    39    28    36    1
    40    28    51    1
    41    28    52    1
    42    29    31    1
    43    29    36    1
    44    30    53    1
    45    31    33    1
    46    32    33    1
    47    32    55    1
    48    33    35    1
    49    33    56    1
    50    34    35    1
    51    34    57    1
    52    35    36    1
    53    35    58    1
    54    36    59    1
    55    17    46    1
    56    17    18    1
    57    20    21    2
    58    20    19    1
    59    24    25    2
    60    24    23    1
    61    31    54    1
    62    31    30    1
