@<TRIPOS>MOLECULE
SAL
 16 16 0 0 0
SMALL
GASTEIGER

@<TRIPOS>ATOM
      1 C           1.0957    0.0011   -0.0157 C.2     1  UNL1        0.3404
      2 O           0.4168    1.0119   -0.0300 O.2     1  UNL1       -0.2450
      3 O           0.5180   -1.2196   -0.0024 O.3     1  UNL1       -0.4770
      4 C           2.5784   -0.0622   -0.0042 C.ar    1  UNL1        0.1001
      5 C           3.3073   -1.2594    0.0117 C.ar    1  UNL1        0.1308
      6 C           4.7016   -1.2389    0.0380 C.ar    1  UNL1       -0.0194
      7 C           5.3835   -0.0224    0.0414 C.ar    1  UNL1       -0.0583
      8 C           4.6715    1.1755    0.0176 C.ar    1  UNL1       -0.0608
      9 C           3.2742    1.1571   -0.0038 C.ar    1  UNL1       -0.0442
     10 O           2.7317   -2.5013    0.0013 O.3     1  UNL1       -0.5059
     11 H          -0.4432   -1.0087    0.0025 H       1  UNL1        0.2954
     12 H           5.2553   -2.1742    0.0557 H       1  UNL1        0.0654
     13 H           6.4706   -0.0114    0.0619 H       1  UNL1        0.0619
     14 H           5.2036    2.1239    0.0171 H       1  UNL1        0.0618
     15 H           2.7305    2.1003   -0.0188 H       1  UNL1        0.0627
     16 H           1.7599   -2.3734   -0.0277 H       1  UNL1        0.2922
@<TRIPOS>BOND
     1     1     2    2
     2     1     3    1
     3     1     4    1
     4     3    11    1
     5     4     5   ar
     6     4     9   ar
     7     5     6   ar
     8     5    10    1
     9     6     7   ar
    10     6    12    1
    11     7     8   ar
    12     7    13    1
    13     8     9   ar
    14     8    14    1
    15     9    15    1
    16    10    16    1
