REMARK  3 active torsions:
REMARK  status: ('A' for Active; 'I' for Inactive)
REMARK    1  A    between atoms: C_1  and  O_3 
REMARK    2  A    between atoms: C_1  and  C_4 
REMARK    3  A    between atoms: C_5  and  O_10 
ROOT
ATOM      1  C   UNL d   1       2.578  -0.062  -0.004  0.00  0.00     0.070 A 
ATOM      2  C   UNL d   1       3.307  -1.259   0.012  0.00  0.00     0.082 A 
ATOM      3  C   UNL d   1       4.702  -1.239   0.038  0.00  0.00     0.037 A 
ATOM      4  C   UNL d   1       5.383  -0.022   0.041  0.00  0.00     0.003 A 
ATOM      5  C   UNL d   1       4.671   1.175   0.018  0.00  0.00     0.001 A 
ATOM      6  C   UNL d   1       3.274   1.157  -0.004  0.00  0.00     0.021 A 
ENDROOT
BRANCH   1   7
ATOM      7  C   UNL d   1       1.096   0.001  -0.016  0.00  0.00     0.178 C 
ATOM      8  O   UNL d   1       0.417   1.012  -0.030  0.00  0.00    -0.646 OA
BRANCH   7   9
ATOM      9  O   UNL d   1       0.518  -1.220  -0.002  0.00  0.00    -0.773 OA
ATOM     10  H   UNL d   1      -0.443  -1.009   0.003  0.00  0.00     0.167 HD
ENDBRANCH   7   9
ENDBRANCH   1   7
BRANCH   2  11
ATOM     11  O   UNL d   1       2.732  -2.501   0.001  0.00  0.00    -0.360 OA
ATOM     12  H   UNL d   1       1.760  -2.373  -0.028  0.00  0.00     0.217 HD
ENDBRANCH   2  11
TORSDOF 3
