MODEL 1
REMARK VINA RESULT:      -8.5      0.000      0.000
REMARK  12 active torsions:
REMARK  status: ('A' for Active; 'I' for Inactive)
REMARK    1  A    between atoms: C_2  and  N_3 
REMARK    2  A    between atoms: C_9  and  C_13 
REMARK    3  A    between atoms: C_13  and  N_14 
REMARK    4  A    between atoms: N_14  and  C_18 
REMARK    5  A    between atoms: C_15  and  C_21 
REMARK       I    between atoms: C_21  and  N_23 
REMARK    6  A    between atoms: N_23  and  CA_24 
REMARK    7  A    between atoms: CA_24  and  CB_25 
REMARK    8  A    between atoms: CA_24  and  C_30 
REMARK    9  A    between atoms: CB_25  and  CG_26 
REMARK   10  A    between atoms: CG_26  and  CD_27 
REMARK   11  A    between atoms: CD_27  and  OE2_29 
REMARK   12  A    between atoms: C_30  and  OXT_32 
ROOT
ATOM      1  C   UNK d   0      20.917  19.988  11.296  0.00  0.00     0.032 A 
ATOM      2  C   UNK d   0      22.193  20.290  10.808  0.00  0.00     0.019 A 
ATOM      3  C   UNK d   0      22.509  20.065   9.462  0.00  0.00     0.030 A 
ATOM      4  C   UNK d   0      21.550  19.589   8.564  0.00  0.00     0.028 A 
ATOM      5  C   UNK d   0      20.258  19.354   9.053  0.00  0.00     0.030 A 
ATOM      6  C   UNK d   0      19.939  19.543  10.405  0.00  0.00     0.019 A 
ENDROOT
BRANCH   4   7
ATOM      7  N   UNK d   0      21.836  19.304   7.248  0.00  0.00    -0.384 N 
ATOM      8  H   UNK d   0      21.589  18.391   6.867  0.00  0.00     0.160 HD
BRANCH   7   9
ATOM      9  C   UNK d   0      22.703  20.105   6.400  0.00  0.00     0.180 C 
BRANCH   9  10
ATOM     10  C   UNK d   0      21.880  21.020   5.512  0.00  0.00     0.070 A 
ATOM     11  N   UNK d   0      20.842  20.489   4.809  0.00  0.00    -0.241 NA
ATOM     12  C   UNK d   0      20.099  21.379   4.098  0.00  0.00     0.173 A 
ATOM     13  C   UNK d   0      18.906  20.910   3.334  0.00  0.00     0.302 A 
ATOM     14  C   UNK d   0      20.370  22.743   4.059  0.00  0.00     0.164 A 
ATOM     15  N   UNK d   0      18.090  21.840   2.708  0.00  0.00    -0.179 NA
ATOM     16  O   UNK d   0      18.672  19.705   3.281  0.00  0.00    -0.263 OA
ATOM     17  C   UNK d   0      18.443  23.084   2.736  0.00  0.00     0.182 A 
ATOM     18  N   UNK d   0      19.553  23.586   3.321  0.00  0.00    -0.314 N 
ATOM     19  H   UNK d   0      19.721  24.573   3.427  0.00  0.00     0.170 HD
ATOM     20  N   UNK d   0      21.424  23.267   4.731  0.00  0.00    -0.239 NA
ATOM     21  C   UNK d   0      22.164  22.382   5.451  0.00  0.00     0.147 A 
BRANCH  17  22
ATOM     22  N   UNK d   0      17.664  24.024   2.150  0.00  0.00    -0.272 NA
ATOM     23  H   UNK d   0      16.770  24.192   2.593  0.00  0.00     0.127 HD
ATOM     24  H   UNK d   0      18.179  24.893   2.022  0.00  0.00     0.127 HD
ENDBRANCH  17  22
ENDBRANCH   9  10
ENDBRANCH   7   9
ENDBRANCH   4   7
BRANCH   1  25
ATOM     25  C   UNK d   0      20.650  20.165  12.751  0.00  0.00     0.252 C 
ATOM     26  O   UNK d   0      19.736  20.891  13.121  0.00  0.00    -0.268 OA
ATOM     27  N   GLU d   1      21.490  19.505  13.626  0.00  0.00    -0.343 N 
ATOM     28  H   GLU d   1      22.367  19.121  13.292  0.00  0.00     0.163 HD
BRANCH  27  29
ATOM     29  CA  GLU d   1      21.358  19.669  15.076  0.00  0.00     0.183 C 
BRANCH  29  30
ATOM     30  CB  GLU d   1      21.168  18.333  15.804  0.00  0.00     0.046 C 
BRANCH  30  31
ATOM     31  CG  GLU d   1      19.901  17.573  15.405  0.00  0.00     0.112 C 
BRANCH  31  32
ATOM     32  CD  GLU d   1      18.677  18.351  15.804  0.00  0.00     0.139 C 
ATOM     33  OE1 GLU d   1      17.930  18.977  15.072  0.00  0.00    -0.650 OA
BRANCH  32  34
ATOM     34  OE2 GLU d   1      18.471  18.336  17.134  0.00  0.00    -0.776 OA
ATOM     35  HE2 GLU d   1      19.310  18.686  17.503  0.00  0.00     0.167 HD
ENDBRANCH  32  34
ENDBRANCH  31  32
ENDBRANCH  30  31
ENDBRANCH  29  30
BRANCH  29  36
ATOM     36  C   GLU d   1      22.512  20.464  15.695  0.00  0.00     0.163 C 
ATOM     37  O   GLU d   1      23.507  20.877  15.118  0.00  0.00    -0.648 OA
BRANCH  36  38
ATOM     38  OXT GLU d   1      22.394  20.662  17.030  0.00  0.00    -0.775 OA
ATOM     39  HXT GLU d   1      22.074  21.590  17.094  0.00  0.00     0.167 HD
ENDBRANCH  36  38
ENDBRANCH  29  36
ENDBRANCH  27  29
ENDBRANCH   1  25
TORSDOF 12
ENDMDL
MODEL 2
REMARK VINA RESULT:      -8.5      2.776     10.319
REMARK  12 active torsions:
REMARK  status: ('A' for Active; 'I' for Inactive)
REMARK    1  A    between atoms: C_2  and  N_3 
REMARK    2  A    between atoms: C_9  and  C_13 
REMARK    3  A    between atoms: C_13  and  N_14 
REMARK    4  A    between atoms: N_14  and  C_18 
REMARK    5  A    between atoms: C_15  and  C_21 
REMARK       I    between atoms: C_21  and  N_23 
REMARK    6  A    between atoms: N_23  and  CA_24 
REMARK    7  A    between atoms: CA_24  and  CB_25 
REMARK    8  A    between atoms: CA_24  and  C_30 
REMARK    9  A    between atoms: CB_25  and  CG_26 
REMARK   10  A    between atoms: CG_26  and  CD_27 
REMARK   11  A    between atoms: CD_27  and  OE2_29 
REMARK   12  A    between atoms: C_30  and  OXT_32 
ROOT
ATOM      1  C   UNK d   0      20.893  22.512   5.058  0.00  0.00     0.032 A 
ATOM      2  C   UNK d   0      22.154  21.999   5.380  0.00  0.00     0.019 A 
ATOM      3  C   UNK d   0      22.535  21.842   6.719  0.00  0.00     0.030 A 
ATOM      4  C   UNK d   0      21.653  22.140   7.762  0.00  0.00     0.028 A 
ATOM      5  C   UNK d   0      20.370  22.592   7.422  0.00  0.00     0.030 A 
ATOM      6  C   UNK d   0      19.989  22.784   6.087  0.00  0.00     0.019 A 
ENDROOT
BRANCH   4   7
ATOM      7  N   UNK d   0      22.008  22.052   9.088  0.00  0.00    -0.384 N 
ATOM      8  H   UNK d   0      22.066  22.901   9.651  0.00  0.00     0.160 HD
BRANCH   7   9
ATOM      9  C   UNK d   0      22.568  20.866   9.716  0.00  0.00     0.180 C 
BRANCH   9  10
ATOM     10  C   UNK d   0      21.462  19.986  10.270  0.00  0.00     0.070 A 
ATOM     11  N   UNK d   0      20.688  20.468  11.281  0.00  0.00    -0.241 NA
ATOM     12  C   UNK d   0      19.667  19.660  11.674  0.00  0.00     0.173 A 
ATOM     13  C   UNK d   0      18.726  20.115  12.739  0.00  0.00     0.302 A 
ATOM     14  C   UNK d   0      19.417  18.413  11.109  0.00  0.00     0.164 A 
ATOM     15  N   UNK d   0      17.622  19.334  13.050  0.00  0.00    -0.179 NA
ATOM     16  O   UNK d   0      18.951  21.175  13.316  0.00  0.00    -0.263 OA
ATOM     17  C   UNK d   0      17.494  18.190  12.462  0.00  0.00     0.182 A 
ATOM     18  N   UNK d   0      18.344  17.657  11.557  0.00  0.00    -0.314 N 
ATOM     19  H   UNK d   0      18.139  16.823  11.033  0.00  0.00     0.170 HD
ATOM     20  N   UNK d   0      20.208  17.919  10.126  0.00  0.00    -0.239 NA
ATOM     21  C   UNK d   0      21.225  18.727   9.724  0.00  0.00     0.147 A 
BRANCH  17  22
ATOM     22  N   UNK d   0      16.421  17.407  12.727  0.00  0.00    -0.272 NA
ATOM     23  H   UNK d   0      16.355  16.555  12.186  0.00  0.00     0.127 HD
ATOM     24  H   UNK d   0      16.350  17.214  13.724  0.00  0.00     0.127 HD
ENDBRANCH  17  22
ENDBRANCH   9  10
ENDBRANCH   7   9
ENDBRANCH   4   7
BRANCH   1  25
ATOM     25  C   UNK d   0      20.560  22.739   3.624  0.00  0.00     0.252 C 
ATOM     26  O   UNK d   0      21.457  22.820   2.793  0.00  0.00    -0.268 OA
ATOM     27  N   GLU d   1      19.224  22.880   3.307  0.00  0.00    -0.343 N 
ATOM     28  H   GLU d   1      18.545  23.050   4.041  0.00  0.00     0.163 HD
BRANCH  27  29
ATOM     29  CA  GLU d   1      18.794  23.178   1.938  0.00  0.00     0.183 C 
BRANCH  29  30
ATOM     30  CB  GLU d   1      17.901  22.080   1.349  0.00  0.00     0.046 C 
BRANCH  30  31
ATOM     31  CG  GLU d   1      17.411  21.051   2.372  0.00  0.00     0.112 C 
BRANCH  31  32
ATOM     32  CD  GLU d   1      17.952  19.687   2.041  0.00  0.00     0.139 C 
ATOM     33  OE1 GLU d   1      18.015  19.165   0.941  0.00  0.00    -0.650 OA
BRANCH  32  34
ATOM     34  OE2 GLU d   1      18.356  19.016   3.136  0.00  0.00    -0.776 OA
ATOM     35  HE2 GLU d   1      18.911  18.293   2.774  0.00  0.00     0.167 HD
ENDBRANCH  32  34
ENDBRANCH  31  32
ENDBRANCH  30  31
ENDBRANCH  29  30
BRANCH  29  36
ATOM     36  C   GLU d   1      18.124  24.550   1.807  0.00  0.00     0.163 C 
ATOM     37  O   GLU d   1      17.377  25.078   2.618  0.00  0.00    -0.648 OA
BRANCH  36  38
ATOM     38  OXT GLU d   1      18.378  25.179   0.634  0.00  0.00    -0.775 OA
ATOM     39  HXT GLU d   1      19.359  25.146   0.569  0.00  0.00     0.167 HD
ENDBRANCH  36  38
ENDBRANCH  29  36
ENDBRANCH  27  29
ENDBRANCH   1  25
TORSDOF 12
ENDMDL
MODEL 3
REMARK VINA RESULT:      -8.5      2.767     10.366
REMARK  12 active torsions:
REMARK  status: ('A' for Active; 'I' for Inactive)
REMARK    1  A    between atoms: C_2  and  N_3 
REMARK    2  A    between atoms: C_9  and  C_13 
REMARK    3  A    between atoms: C_13  and  N_14 
REMARK    4  A    between atoms: N_14  and  C_18 
REMARK    5  A    between atoms: C_15  and  C_21 
REMARK       I    between atoms: C_21  and  N_23 
REMARK    6  A    between atoms: N_23  and  CA_24 
REMARK    7  A    between atoms: CA_24  and  CB_25 
REMARK    8  A    between atoms: CA_24  and  C_30 
REMARK    9  A    between atoms: CB_25  and  CG_26 
REMARK   10  A    between atoms: CG_26  and  CD_27 
REMARK   11  A    between atoms: CD_27  and  OE2_29 
REMARK   12  A    between atoms: C_30  and  OXT_32 
ROOT
ATOM      1  C   UNK d   0      20.272  20.764   8.258  0.00  0.00     0.032 A 
ATOM      2  C   UNK d   0      19.591  21.788   8.923  0.00  0.00     0.019 A 
ATOM      3  C   UNK d   0      18.874  21.519  10.096  0.00  0.00     0.030 A 
ATOM      4  C   UNK d   0      18.865  20.241  10.661  0.00  0.00     0.028 A 
ATOM      5  C   UNK d   0      19.606  19.239  10.019  0.00  0.00     0.030 A 
ATOM      6  C   UNK d   0      20.301  19.489   8.827  0.00  0.00     0.019 A 
ENDROOT
BRANCH   4   7
ATOM      7  N   UNK d   0      18.130  19.924  11.780  0.00  0.00    -0.384 N 
ATOM      8  H   UNK d   0      17.650  20.663  12.293  0.00  0.00     0.160 HD
BRANCH   7   9
ATOM      9  C   UNK d   0      18.178  18.641  12.463  0.00  0.00     0.180 C 
BRANCH   9  10
ATOM     10  C   UNK d   0      19.255  18.650  13.533  0.00  0.00     0.070 A 
ATOM     11  N   UNK d   0      20.120  19.700  13.581  0.00  0.00    -0.241 NA
ATOM     12  C   UNK d   0      21.007  19.682  14.612  0.00  0.00     0.173 A 
ATOM     13  C   UNK d   0      21.966  20.811  14.788  0.00  0.00     0.302 A 
ATOM     14  C   UNK d   0      21.059  18.664  15.559  0.00  0.00     0.164 A 
ATOM     15  N   UNK d   0      22.786  20.840  15.907  0.00  0.00    -0.179 NA
ATOM     16  O   UNK d   0      22.005  21.695  13.936  0.00  0.00    -0.263 OA
ATOM     17  C   UNK d   0      22.750  19.835  16.720  0.00  0.00     0.182 A 
ATOM     18  N   UNK d   0      21.984  18.730  16.590  0.00  0.00    -0.314 N 
ATOM     19  H   UNK d   0      21.896  18.033  17.311  0.00  0.00     0.170 HD
ATOM     20  N   UNK d   0      20.219  17.602  15.492  0.00  0.00    -0.239 NA
ATOM     21  C   UNK d   0      19.326  17.620  14.468  0.00  0.00     0.147 A 
BRANCH  17  22
ATOM     22  N   UNK d   0      23.523  19.833  17.832  0.00  0.00    -0.272 NA
ATOM     23  H   UNK d   0      23.166  19.300  18.614  0.00  0.00     0.127 HD
ATOM     24  H   UNK d   0      24.479  19.562  17.609  0.00  0.00     0.127 HD
ENDBRANCH  17  22
ENDBRANCH   9  10
ENDBRANCH   7   9
ENDBRANCH   4   7
BRANCH   1  25
ATOM     25  C   UNK d   0      20.953  21.077   6.970  0.00  0.00     0.252 C 
ATOM     26  O   UNK d   0      21.333  20.169   6.242  0.00  0.00    -0.268 OA
ATOM     27  N   GLU d   1      21.148  22.412   6.676  0.00  0.00    -0.343 N 
ATOM     28  H   GLU d   1      21.043  23.111   7.403  0.00  0.00     0.163 HD
BRANCH  27  29
ATOM     29  CA  GLU d   1      21.870  22.827   5.470  0.00  0.00     0.183 C 
BRANCH  29  30
ATOM     30  CB  GLU d   1      20.943  23.422   4.404  0.00  0.00     0.046 C 
BRANCH  30  31
ATOM     31  CG  GLU d   1      20.683  22.499   3.211  0.00  0.00     0.112 C 
BRANCH  31  32
ATOM     32  CD  GLU d   1      19.363  21.796   3.372  0.00  0.00     0.139 C 
ATOM     33  OE1 GLU d   1      18.257  22.230   3.097  0.00  0.00    -0.650 OA
BRANCH  32  34
ATOM     34  OE2 GLU d   1      19.497  20.574   3.920  0.00  0.00    -0.776 OA
ATOM     35  HE2 GLU d   1      20.468  20.453   3.983  0.00  0.00     0.167 HD
ENDBRANCH  32  34
ENDBRANCH  31  32
ENDBRANCH  30  31
ENDBRANCH  29  30
BRANCH  29  36
ATOM     36  C   GLU d   1      23.034  23.779   5.768  0.00  0.00     0.163 C 
ATOM     37  O   GLU d   1      23.222  24.880   5.273  0.00  0.00    -0.648 OA
BRANCH  36  38
ATOM     38  OXT GLU d   1      23.946  23.281   6.638  0.00  0.00    -0.775 OA
ATOM     39  HXT GLU d   1      23.679  22.339   6.731  0.00  0.00     0.167 HD
ENDBRANCH  36  38
ENDBRANCH  29  36
ENDBRANCH  27  29
ENDBRANCH   1  25
TORSDOF 12
ENDMDL
MODEL 4
REMARK VINA RESULT:      -8.4      2.695      3.663
REMARK  12 active torsions:
REMARK  status: ('A' for Active; 'I' for Inactive)
REMARK    1  A    between atoms: C_2  and  N_3 
REMARK    2  A    between atoms: C_9  and  C_13 
REMARK    3  A    between atoms: C_13  and  N_14 
REMARK    4  A    between atoms: N_14  and  C_18 
REMARK    5  A    between atoms: C_15  and  C_21 
REMARK       I    between atoms: C_21  and  N_23 
REMARK    6  A    between atoms: N_23  and  CA_24 
REMARK    7  A    between atoms: CA_24  and  CB_25 
REMARK    8  A    between atoms: CA_24  and  C_30 
REMARK    9  A    between atoms: CB_25  and  CG_26 
REMARK   10  A    between atoms: CG_26  and  CD_27 
REMARK   11  A    between atoms: CD_27  and  OE2_29 
REMARK   12  A    between atoms: C_30  and  OXT_32 
ROOT
ATOM      1  C   UNK d   0      19.381  20.450  10.989  0.00  0.00     0.032 A 
ATOM      2  C   UNK d   0      20.197  19.517  10.341  0.00  0.00     0.019 A 
ATOM      3  C   UNK d   0      20.537  19.689   8.993  0.00  0.00     0.030 A 
ATOM      4  C   UNK d   0      20.120  20.816   8.279  0.00  0.00     0.028 A 
ATOM      5  C   UNK d   0      19.357  21.774   8.961  0.00  0.00     0.030 A 
ATOM      6  C   UNK d   0      18.983  21.597  10.300  0.00  0.00     0.019 A 
ENDROOT
BRANCH   4   7
ATOM      7  N   UNK d   0      20.386  20.993   6.941  0.00  0.00    -0.384 N 
ATOM      8  H   UNK d   0      19.635  21.274   6.311  0.00  0.00     0.160 HD
BRANCH   7   9
ATOM      9  C   UNK d   0      21.607  20.563   6.278  0.00  0.00     0.180 C 
BRANCH   9  10
ATOM     10  C   UNK d   0      22.343  21.755   5.694  0.00  0.00     0.070 A 
ATOM     11  N   UNK d   0      23.502  21.539   5.015  0.00  0.00    -0.241 NA
ATOM     12  C   UNK d   0      24.065  22.641   4.451  0.00  0.00     0.173 A 
ATOM     13  C   UNK d   0      25.310  22.508   3.639  0.00  0.00     0.302 A 
ATOM     14  C   UNK d   0      23.523  23.918   4.559  0.00  0.00     0.164 A 
ATOM     15  N   UNK d   0      25.811  23.617   2.974  0.00  0.00    -0.179 NA
ATOM     16  O   UNK d   0      25.863  21.413   3.577  0.00  0.00    -0.263 OA
ATOM     17  C   UNK d   0      25.225  24.756   3.151  0.00  0.00     0.182 A 
ATOM     18  N   UNK d   0      24.152  24.988   3.939  0.00  0.00    -0.314 N 
ATOM     19  H   UNK d   0      23.653  25.862   3.948  0.00  0.00     0.170 HD
ATOM     20  N   UNK d   0      22.387  24.138   5.264  0.00  0.00    -0.239 NA
ATOM     21  C   UNK d   0      21.816  23.038   5.822  0.00  0.00     0.147 A 
BRANCH  17  22
ATOM     22  N   UNK d   0      25.673  25.859   2.505  0.00  0.00    -0.272 NA
ATOM     23  H   UNK d   0      25.700  26.708   3.054  0.00  0.00     0.127 HD
ATOM     24  H   UNK d   0      26.572  25.680   2.063  0.00  0.00     0.127 HD
ENDBRANCH  17  22
ENDBRANCH   9  10
ENDBRANCH   7   9
ENDBRANCH   4   7
BRANCH   1  25
ATOM     25  C   UNK d   0      18.976  20.185  12.399  0.00  0.00     0.252 C 
ATOM     26  O   UNK d   0      17.898  20.594  12.812  0.00  0.00    -0.268 OA
ATOM     27  N   GLU d   1      19.878  19.502  13.190  0.00  0.00    -0.343 N 
ATOM     28  H   GLU d   1      20.840  19.400  12.888  0.00  0.00     0.163 HD
BRANCH  27  29
ATOM     29  CA  GLU d   1      19.609  19.253  14.609  0.00  0.00     0.183 C 
BRANCH  29  30
ATOM     30  CB  GLU d   1      18.807  17.967  14.840  0.00  0.00     0.046 C 
BRANCH  30  31
ATOM     31  CG  GLU d   1      17.400  18.194  15.397  0.00  0.00     0.112 C 
BRANCH  31  32
ATOM     32  CD  GLU d   1      17.445  18.325  16.895  0.00  0.00     0.139 C 
ATOM     33  OE1 GLU d   1      16.672  18.946  17.605  0.00  0.00    -0.650 OA
BRANCH  32  34
ATOM     34  OE2 GLU d   1      18.503  17.691  17.433  0.00  0.00    -0.776 OA
ATOM     35  HE2 GLU d   1      19.096  17.538  16.667  0.00  0.00     0.167 HD
ENDBRANCH  32  34
ENDBRANCH  31  32
ENDBRANCH  30  31
ENDBRANCH  29  30
BRANCH  29  36
ATOM     36  C   GLU d   1      20.878  19.263  15.468  0.00  0.00     0.163 C 
ATOM     37  O   GLU d   1      21.771  20.096  15.443  0.00  0.00    -0.648 OA
BRANCH  36  38
ATOM     38  OXT GLU d   1      20.997  18.191  16.289  0.00  0.00    -0.775 OA
ATOM     39  HXT GLU d   1      21.958  17.987  16.255  0.00  0.00     0.167 HD
ENDBRANCH  36  38
ENDBRANCH  29  36
ENDBRANCH  27  29
ENDBRANCH   1  25
TORSDOF 12
ENDMDL
MODEL 5
REMARK VINA RESULT:      -8.2      1.739      2.166
REMARK  12 active torsions:
REMARK  status: ('A' for Active; 'I' for Inactive)
REMARK    1  A    between atoms: C_2  and  N_3 
REMARK    2  A    between atoms: C_9  and  C_13 
REMARK    3  A    between atoms: C_13  and  N_14 
REMARK    4  A    between atoms: N_14  and  C_18 
REMARK    5  A    between atoms: C_15  and  C_21 
REMARK       I    between atoms: C_21  and  N_23 
REMARK    6  A    between atoms: N_23  and  CA_24 
REMARK    7  A    between atoms: CA_24  and  CB_25 
REMARK    8  A    between atoms: CA_24  and  C_30 
REMARK    9  A    between atoms: CB_25  and  CG_26 
REMARK   10  A    between atoms: CG_26  and  CD_27 
REMARK   11  A    between atoms: CD_27  and  OE2_29 
REMARK   12  A    between atoms: C_30  and  OXT_32 
ROOT
ATOM      1  C   UNK d   0      19.574  20.696  11.166  0.00  0.00     0.032 A 
ATOM      2  C   UNK d   0      20.722  20.188  10.550  0.00  0.00     0.019 A 
ATOM      3  C   UNK d   0      20.874  20.267   9.159  0.00  0.00     0.030 A 
ATOM      4  C   UNK d   0      19.917  20.899   8.362  0.00  0.00     0.028 A 
ATOM      5  C   UNK d   0      18.803  21.461   9.001  0.00  0.00     0.030 A 
ATOM      6  C   UNK d   0      18.624  21.359  10.388  0.00  0.00     0.019 A 
ENDROOT
BRANCH   4   7
ATOM      7  N   UNK d   0      20.003  20.949   6.989  0.00  0.00    -0.384 N 
ATOM      8  H   UNK d   0      19.206  20.657   6.424  0.00  0.00     0.160 HD
BRANCH   7   9
ATOM      9  C   UNK d   0      21.238  21.142   6.246  0.00  0.00     0.180 C 
BRANCH   9  10
ATOM     10  C   UNK d   0      21.023  22.117   5.102  0.00  0.00     0.070 A 
ATOM     11  N   UNK d   0      19.868  22.039   4.386  0.00  0.00    -0.241 NA
ATOM     12  C   UNK d   0      19.706  22.993   3.430  0.00  0.00     0.173 A 
ATOM     13  C   UNK d   0      18.452  23.031   2.622  0.00  0.00     0.302 A 
ATOM     14  C   UNK d   0      20.649  23.982   3.168  0.00  0.00     0.164 A 
ATOM     15  N   UNK d   0      18.248  24.074   1.731  0.00  0.00    -0.179 NA
ATOM     16  O   UNK d   0      17.625  22.135   2.768  0.00  0.00    -0.263 OA
ATOM     17  C   UNK d   0      19.197  24.937   1.568  0.00  0.00     0.182 A 
ATOM     18  N   UNK d   0      20.399  24.928   2.185  0.00  0.00    -0.314 N 
ATOM     19  H   UNK d   0      21.057  25.688   2.122  0.00  0.00     0.170 HD
ATOM     20  N   UNK d   0      21.814  24.038   3.859  0.00  0.00    -0.239 NA
ATOM     21  C   UNK d   0      21.976  23.093   4.822  0.00  0.00     0.147 A 
BRANCH  17  22
ATOM     22  N   UNK d   0      19.030  25.979   0.719  0.00  0.00    -0.272 NA
ATOM     23  H   UNK d   0      18.339  25.847  -0.008  0.00  0.00     0.127 HD
ATOM     24  H   UNK d   0      18.860  26.842   1.234  0.00  0.00     0.127 HD
ENDBRANCH  17  22
ENDBRANCH   9  10
ENDBRANCH   7   9
ENDBRANCH   4   7
BRANCH   1  25
ATOM     25  C   UNK d   0      19.416  20.517  12.637  0.00  0.00     0.252 C 
ATOM     26  O   UNK d   0      19.255  21.493  13.358  0.00  0.00    -0.268 OA
ATOM     27  N   GLU d   1      19.491  19.226  13.121  0.00  0.00    -0.343 N 
ATOM     28  H   GLU d   1      19.864  18.487  12.535  0.00  0.00     0.163 HD
BRANCH  27  29
ATOM     29  CA  GLU d   1      19.420  18.948  14.558  0.00  0.00     0.183 C 
BRANCH  29  30
ATOM     30  CB  GLU d   1      18.412  17.842  14.895  0.00  0.00     0.046 C 
BRANCH  30  31
ATOM     31  CG  GLU d   1      17.176  18.328  15.655  0.00  0.00     0.112 C 
BRANCH  31  32
ATOM     32  CD  GLU d   1      17.406  18.234  17.140  0.00  0.00     0.139 C 
ATOM     33  OE1 GLU d   1      18.077  17.407  17.731  0.00  0.00    -0.650 OA
BRANCH  32  34
ATOM     34  OE2 GLU d   1      16.732  19.179  17.822  0.00  0.00    -0.776 OA
ATOM     35  HE2 GLU d   1      15.949  18.702  18.169  0.00  0.00     0.167 HD
ENDBRANCH  32  34
ENDBRANCH  31  32
ENDBRANCH  30  31
ENDBRANCH  29  30
BRANCH  29  36
ATOM     36  C   GLU d   1      20.789  18.640  15.176  0.00  0.00     0.163 C 
ATOM     37  O   GLU d   1      21.872  18.692  14.613  0.00  0.00    -0.648 OA
BRANCH  36  38
ATOM     38  OXT GLU d   1      20.732  18.224  16.464  0.00  0.00    -0.775 OA
ATOM     39  HXT GLU d   1      20.159  17.426  16.419  0.00  0.00     0.167 HD
ENDBRANCH  36  38
ENDBRANCH  29  36
ENDBRANCH  27  29
ENDBRANCH   1  25
TORSDOF 12
ENDMDL
MODEL 6
REMARK VINA RESULT:      -8.2      5.694      8.992
REMARK  12 active torsions:
REMARK  status: ('A' for Active; 'I' for Inactive)
REMARK    1  A    between atoms: C_2  and  N_3 
REMARK    2  A    between atoms: C_9  and  C_13 
REMARK    3  A    between atoms: C_13  and  N_14 
REMARK    4  A    between atoms: N_14  and  C_18 
REMARK    5  A    between atoms: C_15  and  C_21 
REMARK       I    between atoms: C_21  and  N_23 
REMARK    6  A    between atoms: N_23  and  CA_24 
REMARK    7  A    between atoms: CA_24  and  CB_25 
REMARK    8  A    between atoms: CA_24  and  C_30 
REMARK    9  A    between atoms: CB_25  and  CG_26 
REMARK   10  A    between atoms: CG_26  and  CD_27 
REMARK   11  A    between atoms: CD_27  and  OE2_29 
REMARK   12  A    between atoms: C_30  and  OXT_32 
ROOT
ATOM      1  C   UNK d   0      19.255  22.025   3.545  0.00  0.00     0.032 A 
ATOM      2  C   UNK d   0      19.033  20.660   3.335  0.00  0.00     0.019 A 
ATOM      3  C   UNK d   0      18.205  20.228   2.291  0.00  0.00     0.030 A 
ATOM      4  C   UNK d   0      17.627  21.139   1.403  0.00  0.00     0.028 A 
ATOM      5  C   UNK d   0      17.911  22.499   1.586  0.00  0.00     0.030 A 
ATOM      6  C   UNK d   0      18.712  22.945   2.647  0.00  0.00     0.019 A 
ENDROOT
BRANCH   4   7
ATOM      7  N   UNK d   0      16.764  20.759   0.400  0.00  0.00    -0.384 N 
ATOM      8  H   UNK d   0      15.790  21.058   0.434  0.00  0.00     0.160 HD
BRANCH   7   9
ATOM      9  C   UNK d   0      17.054  19.739  -0.594  0.00  0.00     0.180 C 
BRANCH   9  10
ATOM     10  C   UNK d   0      15.774  19.276  -1.268  0.00  0.00     0.070 A 
ATOM     11  N   UNK d   0      15.849  18.746  -2.520  0.00  0.00    -0.241 NA
ATOM     12  C   UNK d   0      14.678  18.280  -3.030  0.00  0.00     0.173 A 
ATOM     13  C   UNK d   0      14.658  17.631  -4.373  0.00  0.00     0.302 A 
ATOM     14  C   UNK d   0      13.467  18.343  -2.347  0.00  0.00     0.164 A 
ATOM     15  N   UNK d   0      13.482  17.056  -4.834  0.00  0.00    -0.179 NA
ATOM     16  O   UNK d   0      15.688  17.618  -5.042  0.00  0.00    -0.263 OA
ATOM     17  C   UNK d   0      12.415  17.179  -4.114  0.00  0.00     0.182 A 
ATOM     18  N   UNK d   0      12.319  17.829  -2.933  0.00  0.00    -0.314 N 
ATOM     19  H   UNK d   0      11.501  17.791  -2.348  0.00  0.00     0.170 HD
ATOM     20  N   UNK d   0      13.386  18.901  -1.115  0.00  0.00    -0.239 NA
ATOM     21  C   UNK d   0      14.556  19.361  -0.598  0.00  0.00     0.147 A 
BRANCH  17  22
ATOM     22  N   UNK d   0      11.252  16.618  -4.522  0.00  0.00    -0.272 NA
ATOM     23  H   UNK d   0      11.137  16.523  -5.522  0.00  0.00     0.127 HD
ATOM     24  H   UNK d   0      11.091  15.731  -4.048  0.00  0.00     0.127 HD
ENDBRANCH  17  22
ENDBRANCH   9  10
ENDBRANCH   7   9
ENDBRANCH   4   7
BRANCH   1  25
ATOM     25  C   UNK d   0      20.076  22.443   4.716  0.00  0.00     0.252 C 
ATOM     26  O   UNK d   0      20.750  23.463   4.658  0.00  0.00    -0.268 OA
ATOM     27  N   GLU d   1      20.051  21.617   5.823  0.00  0.00    -0.343 N 
ATOM     28  H   GLU d   1      19.684  20.675   5.743  0.00  0.00     0.163 HD
BRANCH  27  29
ATOM     29  CA  GLU d   1      20.877  21.898   6.999  0.00  0.00     0.183 C 
BRANCH  29  30
ATOM     30  CB  GLU d   1      20.079  22.540   8.140  0.00  0.00     0.046 C 
BRANCH  30  31
ATOM     31  CG  GLU d   1      18.893  21.703   8.626  0.00  0.00     0.112 C 
BRANCH  31  32
ATOM     32  CD  GLU d   1      19.010  21.438  10.103  0.00  0.00     0.139 C 
ATOM     33  OE1 GLU d   1      18.123  21.091  10.862  0.00  0.00    -0.650 OA
BRANCH  32  34
ATOM     34  OE2 GLU d   1      20.253  21.667  10.567  0.00  0.00    -0.776 OA
ATOM     35  HE2 GLU d   1      20.815  21.610   9.765  0.00  0.00     0.167 HD
ENDBRANCH  32  34
ENDBRANCH  31  32
ENDBRANCH  30  31
ENDBRANCH  29  30
BRANCH  29  36
ATOM     36  C   GLU d   1      21.644  20.669   7.500  0.00  0.00     0.163 C 
ATOM     37  O   GLU d   1      22.243  20.563   8.560  0.00  0.00    -0.648 OA
BRANCH  36  38
ATOM     38  OXT GLU d   1      21.670  19.638   6.620  0.00  0.00    -0.775 OA
ATOM     39  HXT GLU d   1      22.430  19.860   6.036  0.00  0.00     0.167 HD
ENDBRANCH  36  38
ENDBRANCH  29  36
ENDBRANCH  27  29
ENDBRANCH   1  25
TORSDOF 12
ENDMDL
MODEL 7
REMARK VINA RESULT:      -8.2      3.086     10.372
REMARK  12 active torsions:
REMARK  status: ('A' for Active; 'I' for Inactive)
REMARK    1  A    between atoms: C_2  and  N_3 
REMARK    2  A    between atoms: C_9  and  C_13 
REMARK    3  A    between atoms: C_13  and  N_14 
REMARK    4  A    between atoms: N_14  and  C_18 
REMARK    5  A    between atoms: C_15  and  C_21 
REMARK       I    between atoms: C_21  and  N_23 
REMARK    6  A    between atoms: N_23  and  CA_24 
REMARK    7  A    between atoms: CA_24  and  CB_25 
REMARK    8  A    between atoms: CA_24  and  C_30 
REMARK    9  A    between atoms: CB_25  and  CG_26 
REMARK   10  A    between atoms: CG_26  and  CD_27 
REMARK   11  A    between atoms: CD_27  and  OE2_29 
REMARK   12  A    between atoms: C_30  and  OXT_32 
ROOT
ATOM      1  C   UNK d   0      20.367  21.002   7.787  0.00  0.00     0.032 A 
ATOM      2  C   UNK d   0      19.375  20.732   8.735  0.00  0.00     0.019 A 
ATOM      3  C   UNK d   0      19.489  19.624   9.585  0.00  0.00     0.030 A 
ATOM      4  C   UNK d   0      20.613  18.795   9.546  0.00  0.00     0.028 A 
ATOM      5  C   UNK d   0      21.629  19.117   8.635  0.00  0.00     0.030 A 
ATOM      6  C   UNK d   0      21.512  20.204   7.758  0.00  0.00     0.019 A 
ENDROOT
BRANCH   4   7
ATOM      7  N   UNK d   0      20.737  17.667  10.324  0.00  0.00    -0.384 N 
ATOM      8  H   UNK d   0      20.027  16.937  10.268  0.00  0.00     0.160 HD
BRANCH   7   9
ATOM      9  C   UNK d   0      21.669  17.526  11.431  0.00  0.00     0.180 C 
BRANCH   9  10
ATOM     10  C   UNK d   0      20.971  17.799  12.751  0.00  0.00     0.070 A 
ATOM     11  N   UNK d   0      19.613  17.898  12.764  0.00  0.00    -0.241 NA
ATOM     12  C   UNK d   0      19.050  18.063  13.991  0.00  0.00     0.173 A 
ATOM     13  C   UNK d   0      17.565  18.130  14.124  0.00  0.00     0.302 A 
ATOM     14  C   UNK d   0      19.787  18.144  15.168  0.00  0.00     0.164 A 
ATOM     15  N   UNK d   0      16.997  18.182  15.389  0.00  0.00    -0.179 NA
ATOM     16  O   UNK d   0      16.877  18.136  13.107  0.00  0.00    -0.263 OA
ATOM     17  C   UNK d   0      17.783  18.257  16.413  0.00  0.00     0.182 A 
ATOM     18  N   UNK d   0      19.133  18.296  16.381  0.00  0.00    -0.314 N 
ATOM     19  H   UNK d   0      19.706  18.227  17.206  0.00  0.00     0.170 HD
ATOM     20  N   UNK d   0      21.141  18.079  15.151  0.00  0.00    -0.239 NA
ATOM     21  C   UNK d   0      21.709  17.906  13.928  0.00  0.00     0.147 A 
BRANCH  17  22
ATOM     22  N   UNK d   0      17.267  18.292  17.664  0.00  0.00    -0.272 NA
ATOM     23  H   UNK d   0      17.257  19.201  18.109  0.00  0.00     0.127 HD
ATOM     24  H   UNK d   0      16.345  17.861  17.689  0.00  0.00     0.127 HD
ENDBRANCH  17  22
ENDBRANCH   9  10
ENDBRANCH   7   9
ENDBRANCH   4   7
BRANCH   1  25
ATOM     25  C   UNK d   0      20.166  22.143   6.849  0.00  0.00     0.252 C 
ATOM     26  O   UNK d   0      19.808  23.232   7.279  0.00  0.00    -0.268 OA
ATOM     27  N   GLU d   1      20.371  21.892   5.507  0.00  0.00    -0.343 N 
ATOM     28  H   GLU d   1      20.425  20.936   5.174  0.00  0.00     0.163 HD
BRANCH  27  29
ATOM     29  CA  GLU d   1      20.132  22.924   4.496  0.00  0.00     0.183 C 
BRANCH  29  30
ATOM     30  CB  GLU d   1      21.424  23.399   3.821  0.00  0.00     0.046 C 
BRANCH  30  31
ATOM     31  CG  GLU d   1      22.701  22.802   4.417  0.00  0.00     0.112 C 
BRANCH  31  32
ATOM     32  CD  GLU d   1      23.222  23.678   5.524  0.00  0.00     0.139 C 
ATOM     33  OE1 GLU d   1      23.485  23.345   6.666  0.00  0.00    -0.650 OA
BRANCH  32  34
ATOM     34  OE2 GLU d   1      23.348  24.963   5.144  0.00  0.00    -0.776 OA
ATOM     35  HE2 GLU d   1      24.045  25.314   5.738  0.00  0.00     0.167 HD
ENDBRANCH  32  34
ENDBRANCH  31  32
ENDBRANCH  30  31
ENDBRANCH  29  30
BRANCH  29  36
ATOM     36  C   GLU d   1      19.096  22.504   3.447  0.00  0.00     0.163 C 
ATOM     37  O   GLU d   1      19.065  21.447   2.834  0.00  0.00    -0.648 OA
BRANCH  36  38
ATOM     38  OXT GLU d   1      18.172  23.456   3.171  0.00  0.00    -0.775 OA
ATOM     39  HXT GLU d   1      17.318  22.991   3.322  0.00  0.00     0.167 HD
ENDBRANCH  36  38
ENDBRANCH  29  36
ENDBRANCH  27  29
ENDBRANCH   1  25
TORSDOF 12
ENDMDL
MODEL 8
REMARK VINA RESULT:      -8.1      2.490     10.852
REMARK  12 active torsions:
REMARK  status: ('A' for Active; 'I' for Inactive)
REMARK    1  A    between atoms: C_2  and  N_3 
REMARK    2  A    between atoms: C_9  and  C_13 
REMARK    3  A    between atoms: C_13  and  N_14 
REMARK    4  A    between atoms: N_14  and  C_18 
REMARK    5  A    between atoms: C_15  and  C_21 
REMARK       I    between atoms: C_21  and  N_23 
REMARK    6  A    between atoms: N_23  and  CA_24 
REMARK    7  A    between atoms: CA_24  and  CB_25 
REMARK    8  A    between atoms: CA_24  and  C_30 
REMARK    9  A    between atoms: CB_25  and  CG_26 
REMARK   10  A    between atoms: CG_26  and  CD_27 
REMARK   11  A    between atoms: CD_27  and  OE2_29 
REMARK   12  A    between atoms: C_30  and  OXT_32 
ROOT
ATOM      1  C   UNK d   0      20.557  21.946   5.658  0.00  0.00     0.032 A 
ATOM      2  C   UNK d   0      19.824  22.700   6.580  0.00  0.00     0.019 A 
ATOM      3  C   UNK d   0      19.822  22.354   7.937  0.00  0.00     0.030 A 
ATOM      4  C   UNK d   0      20.590  21.288   8.413  0.00  0.00     0.028 A 
ATOM      5  C   UNK d   0      21.372  20.583   7.488  0.00  0.00     0.030 A 
ATOM      6  C   UNK d   0      21.356  20.899   6.121  0.00  0.00     0.019 A 
ENDROOT
BRANCH   4   7
ATOM      7  N   UNK d   0      20.573  20.883   9.728  0.00  0.00    -0.384 N 
ATOM      8  H   UNK d   0      19.686  20.846  10.231  0.00  0.00     0.160 HD
BRANCH   7   9
ATOM      9  C   UNK d   0      21.754  20.742  10.564  0.00  0.00     0.180 C 
BRANCH   9  10
ATOM     10  C   UNK d   0      21.367  20.274  11.956  0.00  0.00     0.070 A 
ATOM     11  N   UNK d   0      20.047  20.113  12.247  0.00  0.00    -0.241 NA
ATOM     12  C   UNK d   0      19.777  19.616  13.484  0.00  0.00     0.173 A 
ATOM     13  C   UNK d   0      18.364  19.351  13.887  0.00  0.00     0.302 A 
ATOM     14  C   UNK d   0      20.762  19.301  14.414  0.00  0.00     0.164 A 
ATOM     15  N   UNK d   0      18.108  18.737  15.104  0.00  0.00    -0.179 NA
ATOM     16  O   UNK d   0      17.459  19.681  13.126  0.00  0.00    -0.263 OA
ATOM     17  C   UNK d   0      19.104  18.492  15.891  0.00  0.00     0.182 A 
ATOM     18  N   UNK d   0      20.402  18.782  15.649  0.00  0.00    -0.314 N 
ATOM     19  H   UNK d   0      21.156  18.460  16.233  0.00  0.00     0.170 HD
ATOM     20  N   UNK d   0      22.074  19.493  14.136  0.00  0.00    -0.239 NA
ATOM     21  C   UNK d   0      22.350  19.982  12.898  0.00  0.00     0.147 A 
BRANCH  17  22
ATOM     22  N   UNK d   0      18.896  17.878  17.080  0.00  0.00    -0.272 NA
ATOM     23  H   UNK d   0      17.981  17.467  17.208  0.00  0.00     0.127 HD
ATOM     24  H   UNK d   0      19.633  17.202  17.273  0.00  0.00     0.127 HD
ENDBRANCH  17  22
ENDBRANCH   9  10
ENDBRANCH   7   9
ENDBRANCH   4   7
BRANCH   1  25
ATOM     25  C   UNK d   0      20.465  22.300   4.213  0.00  0.00     0.252 C 
ATOM     26  O   UNK d   0      21.479  22.341   3.528  0.00  0.00    -0.268 OA
ATOM     27  N   GLU d   1      19.210  22.598   3.722  0.00  0.00    -0.343 N 
ATOM     28  H   GLU d   1      18.448  22.790   4.363  0.00  0.00     0.163 HD
BRANCH  27  29
ATOM     29  CA  GLU d   1      19.020  23.027   2.334  0.00  0.00     0.183 C 
BRANCH  29  30
ATOM     30  CB  GLU d   1      17.958  22.198   1.602  0.00  0.00     0.046 C 
BRANCH  30  31
ATOM     31  CG  GLU d   1      17.348  21.074   2.442  0.00  0.00     0.112 C 
BRANCH  31  32
ATOM     32  CD  GLU d   1      17.935  19.746   2.046  0.00  0.00     0.139 C 
ATOM     33  OE1 GLU d   1      18.019  19.283   0.922  0.00  0.00    -0.650 OA
BRANCH  32  34
ATOM     34  OE2 GLU d   1      18.357  19.036   3.109  0.00  0.00    -0.776 OA
ATOM     35  HE2 GLU d   1      17.826  18.213   3.064  0.00  0.00     0.167 HD
ENDBRANCH  32  34
ENDBRANCH  31  32
ENDBRANCH  30  31
ENDBRANCH  29  30
BRANCH  29  36
ATOM     36  C   GLU d   1      18.719  24.525   2.207  0.00  0.00     0.163 C 
ATOM     37  O   GLU d   1      19.519  25.411   1.945  0.00  0.00    -0.648 OA
BRANCH  36  38
ATOM     38  OXT GLU d   1      17.431  24.854   2.470  0.00  0.00    -0.775 OA
ATOM     39  HXT GLU d   1      17.358  25.772   2.124  0.00  0.00     0.167 HD
ENDBRANCH  36  38
ENDBRANCH  29  36
ENDBRANCH  27  29
ENDBRANCH   1  25
TORSDOF 12
ENDMDL
MODEL 9
REMARK VINA RESULT:      -8.0      2.873     10.657
REMARK  12 active torsions:
REMARK  status: ('A' for Active; 'I' for Inactive)
REMARK    1  A    between atoms: C_2  and  N_3 
REMARK    2  A    between atoms: C_9  and  C_13 
REMARK    3  A    between atoms: C_13  and  N_14 
REMARK    4  A    between atoms: N_14  and  C_18 
REMARK    5  A    between atoms: C_15  and  C_21 
REMARK       I    between atoms: C_21  and  N_23 
REMARK    6  A    between atoms: N_23  and  CA_24 
REMARK    7  A    between atoms: CA_24  and  CB_25 
REMARK    8  A    between atoms: CA_24  and  C_30 
REMARK    9  A    between atoms: CB_25  and  CG_26 
REMARK   10  A    between atoms: CG_26  and  CD_27 
REMARK   11  A    between atoms: CD_27  and  OE2_29 
REMARK   12  A    between atoms: C_30  and  OXT_32 
ROOT
ATOM      1  C   UNK d   0      19.618  21.123   8.672  0.00  0.00     0.032 A 
ATOM      2  C   UNK d   0      18.891  21.714   9.710  0.00  0.00     0.019 A 
ATOM      3  C   UNK d   0      18.381  20.931  10.754  0.00  0.00     0.030 A 
ATOM      4  C   UNK d   0      18.630  19.557  10.816  0.00  0.00     0.028 A 
ATOM      5  C   UNK d   0      19.416  18.990   9.803  0.00  0.00     0.030 A 
ATOM      6  C   UNK d   0      19.903  19.758   8.736  0.00  0.00     0.019 A 
ENDROOT
BRANCH   4   7
ATOM      7  N   UNK d   0      18.102  18.746  11.794  0.00  0.00    -0.384 N 
ATOM      8  H   UNK d   0      17.698  17.846  11.537  0.00  0.00     0.160 HD
BRANCH   7   9
ATOM      9  C   UNK d   0      17.830  19.168  13.159  0.00  0.00     0.180 C 
BRANCH   9  10
ATOM     10  C   UNK d   0      19.073  19.020  14.018  0.00  0.00     0.070 A 
ATOM     11  N   UNK d   0      20.060  19.950  13.905  0.00  0.00    -0.241 NA
ATOM     12  C   UNK d   0      21.107  19.800  14.761  0.00  0.00     0.173 A 
ATOM     13  C   UNK d   0      22.219  20.795  14.757  0.00  0.00     0.302 A 
ATOM     14  C   UNK d   0      21.196  18.767  15.688  0.00  0.00     0.164 A 
ATOM     15  N   UNK d   0      23.222  20.698  15.710  0.00  0.00    -0.179 NA
ATOM     16  O   UNK d   0      22.218  21.682  13.907  0.00  0.00    -0.263 OA
ATOM     17  C   UNK d   0      23.204  19.691  16.521  0.00  0.00     0.182 A 
ATOM     18  N   UNK d   0      22.290  18.695  16.536  0.00  0.00    -0.314 N 
ATOM     19  H   UNK d   0      22.244  18.001  17.264  0.00  0.00     0.170 HD
ATOM     20  N   UNK d   0      20.228  17.822  15.777  0.00  0.00    -0.239 NA
ATOM     21  C   UNK d   0      19.176  17.972  14.930  0.00  0.00     0.147 A 
BRANCH  17  22
ATOM     22  N   UNK d   0      24.156  19.571  17.476  0.00  0.00    -0.272 NA
ATOM     23  H   UNK d   0      24.223  20.341  18.129  0.00  0.00     0.127 HD
ATOM     24  H   UNK d   0      24.068  18.682  17.965  0.00  0.00     0.127 HD
ENDBRANCH  17  22
ENDBRANCH   9  10
ENDBRANCH   7   9
ENDBRANCH   4   7
BRANCH   1  25
ATOM     25  C   UNK d   0      20.070  21.980   7.540  0.00  0.00     0.252 C 
ATOM     26  O   UNK d   0      20.154  23.192   7.686  0.00  0.00    -0.268 OA
ATOM     27  N   GLU d   1      20.348  21.343   6.346  0.00  0.00    -0.343 N 
ATOM     28  H   GLU d   1      20.035  20.390   6.197  0.00  0.00     0.163 HD
BRANCH  27  29
ATOM     29  CA  GLU d   1      20.730  22.100   5.152  0.00  0.00     0.183 C 
BRANCH  29  30
ATOM     30  CB  GLU d   1      22.044  21.605   4.537  0.00  0.00     0.046 C 
BRANCH  30  31
ATOM     31  CG  GLU d   1      23.296  22.291   5.090  0.00  0.00     0.112 C 
BRANCH  31  32
ATOM     32  CD  GLU d   1      23.275  23.760   4.764  0.00  0.00     0.139 C 
ATOM     33  OE1 GLU d   1      23.033  24.681   5.525  0.00  0.00    -0.650 OA
BRANCH  32  34
ATOM     34  OE2 GLU d   1      23.523  23.999   3.463  0.00  0.00    -0.776 OA
ATOM     35  HE2 GLU d   1      23.830  24.931   3.453  0.00  0.00     0.167 HD
ENDBRANCH  32  34
ENDBRANCH  31  32
ENDBRANCH  30  31
ENDBRANCH  29  30
BRANCH  29  36
ATOM     36  C   GLU d   1      19.622  22.148   4.094  0.00  0.00     0.163 C 
ATOM     37  O   GLU d   1      18.968  23.127   3.766  0.00  0.00    -0.648 OA
BRANCH  36  38
ATOM     38  OXT GLU d   1      19.343  20.948   3.531  0.00  0.00    -0.775 OA
ATOM     39  HXT GLU d   1      18.593  21.151   2.928  0.00  0.00     0.167 HD
ENDBRANCH  36  38
ENDBRANCH  29  36
ENDBRANCH  27  29
ENDBRANCH   1  25
TORSDOF 12
ENDMDL
