@<TRIPOS>MOLECULE
FOL
 51 53 0 0 0
SMALL
GASTEIGER

@<TRIPOS>ATOM
      1 N           2.2715    4.2788    1.4773 N.ar    0  UNK0       -0.3109
      2 C           1.8653    4.4675    2.7522 C.ar    0  UNK0        0.1953
      3 N           1.5150    5.7470    3.0272 N.pl3   0  UNK0       -0.3289
      4 N           1.8010    3.5648    3.6747 N.ar    0  UNK0       -0.1756
      5 C           2.1852    2.2698    3.3577 C.ar    0  UNK0        0.3021
      6 O           2.0767    1.3493    4.1627 O.2     0  UNK0       -0.2633
      7 C           2.7485    1.9843    2.0055 C.ar    0  UNK0        0.1725
      8 N           3.2325    0.7449    1.7222 N.ar    0  UNK0       -0.2400
      9 C           3.7690    0.5957    0.4805 C.ar    0  UNK0        0.0773
     10 C           3.7693    1.6488   -0.4321 C.ar    0  UNK0        0.0528
     11 N           3.2759    2.8830   -0.1460 N.ar    0  UNK0       -0.2339
     12 C           2.7725    3.0408    1.1016 C.ar    0  UNK0        0.1644
     13 C           4.4087   -0.7320    0.1167 C.3     0  UNK0        0.0530
     14 N           4.3197   -1.6614    1.2315 N.pl3   0  UNK0       -0.3382
     15 C           5.6529   -5.6489    1.1186 C.ar    0  UNK0        0.0368
     16 C           6.3510   -4.6592    0.4198 C.ar    0  UNK0       -0.0479
     17 C           5.9153   -3.3283    0.4514 C.ar    0  UNK0       -0.0401
     18 C           4.8120   -2.9460    1.2189 C.ar    0  UNK0        0.0275
     19 C           4.1621   -3.9379    1.9657 C.ar    0  UNK0       -0.0401
     20 C           4.5692   -5.2785    1.9172 C.ar    0  UNK0       -0.0479
     21 C           6.1029   -7.0635    0.9924 C.2     0  UNK0        0.2447
     22 O           7.2655   -7.3122    0.6997 O.2     0  UNK0       -0.2702
     23 N           5.1495   -8.0434    1.1870 N.am    1  GLU1       -0.2983
     24 CA          5.4697   -9.4618    1.0150 C.3     1  GLU1        0.1209
     25 CB          6.3957   -9.9939    2.1155 C.3     1  GLU1       -0.0140
     26 CG          5.9281   -9.6803    3.5379 C.3     1  GLU1        0.0470
     27 CD          6.9032  -10.2311    4.5428 C.2     1  GLU1        0.3048
     28 OE1         7.6615  -11.1734    4.3938 O.2     1  GLU1       -0.2510
     29 OE2         6.8443   -9.5835    5.7220 O.3     1  GLU1       -0.4806
     30 C           4.2243  -10.3449    0.8823 C.2     1  GLU1        0.3253
     31 O           4.1967  -11.5646    0.8181 O.2     1  GLU1       -0.2489
     32 OXT         3.0639   -9.6517    0.7804 O.3     1  GLU1       -0.4793
     33 H           2.4249    5.0345    0.8300 H       0  UNK0        0.1701
     34 H           0.9631    6.2126    2.3191 H       0  UNK0        0.1451
     35 H           1.0707    5.8134    3.9414 H       0  UNK0        0.1451
     36 H           4.1803    1.5371   -1.4312 H       0  UNK0        0.0849
     37 H           3.8925   -1.1426   -0.7597 H       0  UNK0        0.0527
     38 H           5.4562   -0.5429   -0.1398 H       0  UNK0        0.0527
     39 H           3.6923   -1.3698    1.9811 H       0  UNK0        0.1465
     40 H           7.2343   -4.9169   -0.1617 H       0  UNK0        0.0626
     41 H           6.4799   -2.5903   -0.1106 H       0  UNK0        0.0636
     42 H           3.3068   -3.6723    2.5844 H       0  UNK0        0.0636
     43 H           4.0378   -6.0079    2.5204 H       0  UNK0        0.0626
     44 H           4.1654   -7.7985    1.1832 H       1  GLU1        0.1498
     45 HA          5.9819   -9.5492    0.0487 H       1  GLU1        0.0614
     46 HB1         6.5139  -11.0789    2.0019 H       1  GLU1        0.0294
     47 HB2         7.3984   -9.5706    1.9790 H       1  GLU1        0.0294
     48 HG1         5.8697   -8.5948    3.6820 H       1  GLU1        0.0378
     49 HG2         4.9439  -10.1146    3.7389 H       1  GLU1        0.0378
     50 HE2         7.5232  -10.0338    6.2678 H       1  GLU1        0.2951
     51 HXT         2.3934  -10.3564    0.6344 H       1  GLU1        0.2951
@<TRIPOS>BOND
     1     1     2   ar
     2     1    12   ar
     3     1    33    1
     4     2     3    1
     5     2     4   ar
     6     3    34    1
     7     3    35    1
     8     4     5   ar
     9     5     6    2
    10     5     7   ar
    11     7     8   ar
    12     7    12   ar
    13     8     9   ar
    14     9    10   ar
    15     9    13    1
    16    10    11   ar
    17    10    36    1
    18    11    12   ar
    19    13    14    1
    20    13    37    1
    21    13    38    1
    22    14    18    1
    23    14    39    1
    24    15    16   ar
    25    15    20   ar
    26    15    21    1
    27    16    17   ar
    28    16    40    1
    29    17    18   ar
    30    17    41    1
    31    18    19   ar
    32    19    20   ar
    33    19    42    1
    34    20    43    1
    35    21    22    2
    36    21    23   am
    37    23    24    1
    38    23    44    1
    39    24    25    1
    40    24    30    1
    41    24    45    1
    42    25    26    1
    43    25    46    1
    44    25    47    1
    45    26    27    1
    46    26    48    1
    47    26    49    1
    48    27    28    2
    49    27    29    1
    50    29    50    1
    51    30    31    2
    52    30    32    1
    53    32    51    1
