MODEL 1
REMARK VINA RESULT:      -7.4      0.000      0.000
REMARK  10 active torsions:
REMARK  status: ('A' for Active; 'I' for Inactive)
REMARK    1  A    between atoms: O_4  and  C_21 
REMARK    2  A    between atoms: O_4  and  C_26 
REMARK    3  A    between atoms: O_5  and  C_22 
REMARK    4  A    between atoms: O_8  and  N_12 
REMARK    5  A    between atoms: CA_16  and  N_11 
REMARK       I    between atoms: N_11  and  C_23 
REMARK    6  A    between atoms: N_14  and  C_29 
REMARK    7  A    between atoms: CA_18  and  C_22 
REMARK    8  A    between atoms: C_19  and  C_21 
REMARK    9  A    between atoms: C_23  and  C_24 
REMARK   10  A    between atoms: C_24  and  C_25 
ROOT
ATOM      1  S   UNL d   1      38.627  -9.685  -1.814  0.00  0.00    -0.136 SA
ATOM      2  O   UNL d   1      41.884  -7.329  -2.816  0.00  0.00    -0.271 OA
ATOM      3  N   UNL d   1      39.685  -7.256  -2.056  0.00  0.00    -0.293 N 
ATOM      4  C   UNL d   1      38.710  -8.113  -2.727  0.00  0.00     0.187 C 
ATOM      5  CA  UNL d   1      39.669  -8.037  -3.970  0.00  0.00     0.211 C 
ATOM      6  C   UNL d   1      40.705  -7.541  -2.915  0.00  0.00     0.251 C 
ATOM      7  CA  UNL d   1      39.695  -7.006  -0.700  0.00  0.00     0.117 C 
ATOM      8  C   UNL d   1      38.929  -7.741   0.160  0.00  0.00    -0.013 C 
ATOM      9  C   UNL d   1      38.051  -8.893  -0.276  0.00  0.00     0.115 C 
ENDROOT
BRANCH   5  10
ATOM     10  N   UNL d   1      39.819  -9.274  -4.816  0.00  0.00    -0.339 N 
ATOM     11  C   UNL d   1      39.087  -9.300  -6.001  0.00  0.00     0.275 C 
ATOM     12  O   UNL d   1      39.144 -10.282  -6.741  0.00  0.00    -0.266 OA
ATOM     13  H   UNL d   1      40.544  -9.969  -4.672  0.00  0.00     0.163 HD
BRANCH  11  14
ATOM     14  C   UNL d   1      38.211  -8.122  -6.445  0.00  0.00     0.180 C 
ATOM     15  N   UNL d   1      38.507  -7.123  -7.222  0.00  0.00    -0.126 NA
BRANCH  15  16
ATOM     16  O   UNL d   1      39.796  -7.088  -7.757  0.00  0.00    -0.261 OA
ATOM     17  C   UNL d   1      39.671  -7.493  -9.132  0.00  0.00     0.240 C 
ENDBRANCH  15  16
BRANCH  14  18
ATOM     18  C   UNL d   1      36.881  -8.017  -5.826  0.00  0.00     0.102 A 
ATOM     19  N   UNL d   1      36.382  -9.007  -4.989  0.00  0.00    -0.222 NA
ATOM     20  C   UNL d   1      35.255  -8.620  -4.448  0.00  0.00     0.164 A 
ATOM     21  S   UNL d   1      34.664  -7.099  -4.972  0.00  0.00    -0.062 SA
ATOM     22  C   UNL d   1      36.045  -6.920  -5.967  0.00  0.00     0.087 A 
BRANCH  20  23
ATOM     23  N   UNL d   1      34.594  -9.355  -3.543  0.00  0.00    -0.378 N 
ATOM     24  H   UNL d   1      33.584  -9.318  -3.522  0.00  0.00     0.158 HD
ATOM     25  H   UNL d   1      35.005 -10.248  -3.303  0.00  0.00     0.158 HD
ENDBRANCH  20  23
ENDBRANCH  14  18
ENDBRANCH  11  14
ENDBRANCH   5  10
BRANCH   7  26
ATOM     26  C   UNL d   1      40.473  -5.798  -0.205  0.00  0.00     0.194 C 
ATOM     27  OXT UNL d   1      39.939  -4.750   0.138  0.00  0.00    -0.645 OA
BRANCH  26  28
ATOM     28  O   UNL d   1      41.808  -5.897  -0.312  0.00  0.00    -0.772 OA
ATOM     29  H   UNL d   1      42.175  -5.717  -1.204  0.00  0.00     0.167 HD
ENDBRANCH  26  28
ENDBRANCH   7  26
BRANCH   8  30
ATOM     30  C   UNL d   1      38.923  -7.539   1.669  0.00  0.00     0.216 C 
BRANCH  30  31
ATOM     31  O   UNL d   1      37.577  -7.422   2.151  0.00  0.00    -0.317 OA
BRANCH  31  32
ATOM     32  C   UNL d   1      37.206  -8.295   3.124  0.00  0.00     0.255 C 
ATOM     33  O   UNL d   1      37.481  -9.485   3.152  0.00  0.00    -0.266 OA
ATOM     34  C   UNL d   1      36.417  -7.584   4.179  0.00  0.00     0.126 C 
ENDBRANCH  31  32
ENDBRANCH  30  31
ENDBRANCH   8  30
TORSDOF 10
ENDMDL
MODEL 2
REMARK VINA RESULT:      -7.2      2.835      8.323
REMARK  10 active torsions:
REMARK  status: ('A' for Active; 'I' for Inactive)
REMARK    1  A    between atoms: O_4  and  C_21 
REMARK    2  A    between atoms: O_4  and  C_26 
REMARK    3  A    between atoms: O_5  and  C_22 
REMARK    4  A    between atoms: O_8  and  N_12 
REMARK    5  A    between atoms: CA_16  and  N_11 
REMARK       I    between atoms: N_11  and  C_23 
REMARK    6  A    between atoms: N_14  and  C_29 
REMARK    7  A    between atoms: CA_18  and  C_22 
REMARK    8  A    between atoms: C_19  and  C_21 
REMARK    9  A    between atoms: C_23  and  C_24 
REMARK   10  A    between atoms: C_24  and  C_25 
ROOT
ATOM      1  S   UNL d   1      39.242  -9.287  -5.286  0.00  0.00    -0.136 SA
ATOM      2  O   UNL d   1      35.475  -7.825  -4.373  0.00  0.00    -0.271 OA
ATOM      3  N   UNL d   1      37.546  -7.237  -5.258  0.00  0.00    -0.293 N 
ATOM      4  C   UNL d   1      38.739  -7.700  -4.551  0.00  0.00     0.187 C 
ATOM      5  CA  UNL d   1      37.825  -7.742  -3.272  0.00  0.00     0.211 C 
ATOM      6  C   UNL d   1      36.668  -7.687  -4.317  0.00  0.00     0.251 C 
ATOM      7  CA  UNL d   1      37.436  -7.168  -6.630  0.00  0.00     0.117 C 
ATOM      8  C   UNL d   1      38.358  -7.761  -7.446  0.00  0.00    -0.013 C 
ATOM      9  C   UNL d   1      39.536  -8.561  -6.933  0.00  0.00     0.115 C 
ENDROOT
BRANCH   5  10
ATOM     10  N   UNL d   1      38.050  -8.859  -2.287  0.00  0.00    -0.339 N 
ATOM     11  C   UNL d   1      38.998  -8.620  -1.295  0.00  0.00     0.275 C 
ATOM     12  O   UNL d   1      39.250  -9.489  -0.459  0.00  0.00    -0.266 OA
ATOM     13  H   UNL d   1      37.434  -9.659  -2.195  0.00  0.00     0.163 HD
BRANCH  11  14
ATOM     14  C   UNL d   1      39.741  -7.283  -1.181  0.00  0.00     0.180 C 
ATOM     15  N   UNL d   1      39.261  -6.086  -1.022  0.00  0.00    -0.126 NA
BRANCH  15  16
ATOM     16  O   UNL d   1      37.874  -5.959  -0.926  0.00  0.00    -0.261 OA
ATOM     17  C   UNL d   1      37.558  -6.055   0.474  0.00  0.00     0.240 C 
ENDBRANCH  15  16
BRANCH  14  18
ATOM     18  C   UNL d   1      41.196  -7.315  -1.397  0.00  0.00     0.102 A 
ATOM     19  N   UNL d   1      42.071  -6.589  -0.600  0.00  0.00    -0.222 NA
ATOM     20  C   UNL d   1      43.310  -6.895  -0.889  0.00  0.00     0.164 A 
ATOM     21  S   UNL d   1      43.520  -7.989  -2.191  0.00  0.00    -0.062 SA
ATOM     22  C   UNL d   1      41.820  -8.100  -2.354  0.00  0.00     0.087 A 
BRANCH  20  23
ATOM     23  N   UNL d   1      44.357  -6.393  -0.220  0.00  0.00    -0.378 N 
ATOM     24  H   UNL d   1      44.442  -5.391  -0.118  0.00  0.00     0.158 HD
ATOM     25  H   UNL d   1      44.699  -6.943   0.558  0.00  0.00     0.158 HD
ENDBRANCH  20  23
ENDBRANCH  14  18
ENDBRANCH  11  14
ENDBRANCH   5  10
BRANCH   7  26
ATOM     26  C   UNL d   1      36.337  -6.294  -7.213  0.00  0.00     0.194 C 
ATOM     27  OXT UNL d   1      36.450  -5.084  -7.362  0.00  0.00    -0.645 OA
BRANCH  26  28
ATOM     28  O   UNL d   1      35.163  -6.914  -7.416  0.00  0.00    -0.772 OA
ATOM     29  H   UNL d   1      35.030  -7.744  -6.910  0.00  0.00     0.167 HD
ENDBRANCH  26  28
ENDBRANCH   7  26
BRANCH   8  30
ATOM     30  C   UNL d   1      38.273  -7.752  -8.965  0.00  0.00     0.216 C 
BRANCH  30  31
ATOM     31  O   UNL d   1      38.934  -6.593  -9.495  0.00  0.00    -0.317 OA
BRANCH  31  32
ATOM     32  C   UNL d   1      38.225  -5.848 -10.382  0.00  0.00     0.255 C 
ATOM     33  O   UNL d   1      38.532  -4.734 -10.779  0.00  0.00    -0.266 OA
ATOM     34  C   UNL d   1      37.007  -6.598 -10.825  0.00  0.00     0.126 C 
ENDBRANCH  31  32
ENDBRANCH  30  31
ENDBRANCH   8  30
TORSDOF 10
ENDMDL
MODEL 3
REMARK VINA RESULT:      -7.2      2.025      2.529
REMARK  10 active torsions:
REMARK  status: ('A' for Active; 'I' for Inactive)
REMARK    1  A    between atoms: O_4  and  C_21 
REMARK    2  A    between atoms: O_4  and  C_26 
REMARK    3  A    between atoms: O_5  and  C_22 
REMARK    4  A    between atoms: O_8  and  N_12 
REMARK    5  A    between atoms: CA_16  and  N_11 
REMARK       I    between atoms: N_11  and  C_23 
REMARK    6  A    between atoms: N_14  and  C_29 
REMARK    7  A    between atoms: CA_18  and  C_22 
REMARK    8  A    between atoms: C_19  and  C_21 
REMARK    9  A    between atoms: C_23  and  C_24 
REMARK   10  A    between atoms: C_24  and  C_25 
ROOT
ATOM      1  S   UNL d   1      37.445  -9.081  -3.098  0.00  0.00    -0.136 SA
ATOM      2  O   UNL d   1      41.559  -9.102  -2.609  0.00  0.00    -0.271 OA
ATOM      3  N   UNL d   1      39.684  -7.723  -2.623  0.00  0.00    -0.293 N 
ATOM      4  C   UNL d   1      38.711  -7.917  -3.696  0.00  0.00     0.187 C 
ATOM      5  CA  UNL d   1      39.912  -8.502  -4.524  0.00  0.00     0.211 C 
ATOM      6  C   UNL d   1      40.592  -8.607  -3.125  0.00  0.00     0.251 C 
ATOM      7  CA  UNL d   1      39.352  -7.417  -1.320  0.00  0.00     0.117 C 
ATOM      8  C   UNL d   1      38.062  -7.511  -0.878  0.00  0.00    -0.013 C 
ATOM      9  C   UNL d   1      36.913  -7.983  -1.742  0.00  0.00     0.115 C 
ENDROOT
BRANCH   5  10
ATOM     10  N   UNL d   1      39.630  -9.665  -5.440  0.00  0.00    -0.339 N 
ATOM     11  C   UNL d   1      39.646  -9.388  -6.805  0.00  0.00     0.275 C 
ATOM     12  O   UNL d   1      39.412 -10.282  -7.619  0.00  0.00    -0.266 OA
ATOM     13  H   UNL d   1      39.627 -10.632  -5.135  0.00  0.00     0.163 HD
BRANCH  11  14
ATOM     14  C   UNL d   1      39.973  -7.993  -7.351  0.00  0.00     0.180 C 
ATOM     15  N   UNL d   1      41.104  -7.352  -7.348  0.00  0.00    -0.126 NA
BRANCH  15  16
ATOM     16  O   UNL d   1      42.205  -7.999  -6.785  0.00  0.00    -0.261 OA
ATOM     17  C   UNL d   1      43.117  -8.256  -7.867  0.00  0.00     0.240 C 
ENDBRANCH  15  16
BRANCH  14  18
ATOM     18  C   UNL d   1      38.841  -7.195  -7.848  0.00  0.00     0.102 A 
ATOM     19  N   UNL d   1      37.930  -6.600  -6.985  0.00  0.00    -0.222 NA
ATOM     20  C   UNL d   1      37.110  -5.828  -7.651  0.00  0.00     0.164 A 
ATOM     21  S   UNL d   1      37.304  -5.833  -9.354  0.00  0.00    -0.062 SA
ATOM     22  C   UNL d   1      38.618  -6.918  -9.188  0.00  0.00     0.087 A 
BRANCH  20  23
ATOM     23  N   UNL d   1      36.174  -5.077  -7.056  0.00  0.00    -0.378 N 
ATOM     24  H   UNL d   1      35.763  -4.306  -7.564  0.00  0.00     0.158 HD
ATOM     25  H   UNL d   1      35.556  -5.556  -6.412  0.00  0.00     0.158 HD
ENDBRANCH  20  23
ENDBRANCH  14  18
ENDBRANCH  11  14
ENDBRANCH   5  10
BRANCH   7  26
ATOM     26  C   UNL d   1      40.436  -6.838  -0.426  0.00  0.00     0.194 C 
ATOM     27  OXT UNL d   1      40.624  -5.635  -0.292  0.00  0.00    -0.645 OA
BRANCH  26  28
ATOM     28  O   UNL d   1      41.285  -7.738   0.096  0.00  0.00    -0.772 OA
ATOM     29  H   UNL d   1      41.267  -8.627  -0.318  0.00  0.00     0.167 HD
ENDBRANCH  26  28
ENDBRANCH   7  26
BRANCH   8  30
ATOM     30  C   UNL d   1      37.637  -7.224   0.555  0.00  0.00     0.216 C 
BRANCH  30  31
ATOM     31  O   UNL d   1      37.858  -8.377   1.381  0.00  0.00    -0.317 OA
BRANCH  31  32
ATOM     32  C   UNL d   1      38.160  -8.136   2.684  0.00  0.00     0.255 C 
ATOM     33  O   UNL d   1      39.209  -7.664   3.094  0.00  0.00    -0.266 OA
ATOM     34  C   UNL d   1      37.006  -8.521   3.557  0.00  0.00     0.126 C 
ENDBRANCH  31  32
ENDBRANCH  30  31
ENDBRANCH   8  30
TORSDOF 10
ENDMDL
MODEL 4
REMARK VINA RESULT:      -6.8     11.348     16.702
REMARK  10 active torsions:
REMARK  status: ('A' for Active; 'I' for Inactive)
REMARK    1  A    between atoms: O_4  and  C_21 
REMARK    2  A    between atoms: O_4  and  C_26 
REMARK    3  A    between atoms: O_5  and  C_22 
REMARK    4  A    between atoms: O_8  and  N_12 
REMARK    5  A    between atoms: CA_16  and  N_11 
REMARK       I    between atoms: N_11  and  C_23 
REMARK    6  A    between atoms: N_14  and  C_29 
REMARK    7  A    between atoms: CA_18  and  C_22 
REMARK    8  A    between atoms: C_19  and  C_21 
REMARK    9  A    between atoms: C_23  and  C_24 
REMARK   10  A    between atoms: C_24  and  C_25 
ROOT
ATOM      1  S   UNL d   1      36.195 -11.332  11.527  0.00  0.00    -0.136 SA
ATOM      2  O   UNL d   1      37.465  -7.683  13.021  0.00  0.00    -0.271 OA
ATOM      3  N   UNL d   1      37.929  -9.316  11.429  0.00  0.00    -0.293 N 
ATOM      4  C   UNL d   1      37.874 -10.712  11.858  0.00  0.00     0.187 C 
ATOM      5  CA  UNL d   1      38.182 -10.163  13.298  0.00  0.00     0.211 C 
ATOM      6  C   UNL d   1      37.744  -8.801  12.678  0.00  0.00     0.251 C 
ATOM      7  CA  UNL d   1      37.503  -8.866  10.197  0.00  0.00     0.117 C 
ATOM      8  C   UNL d   1      36.767  -9.663   9.368  0.00  0.00    -0.013 C 
ATOM      9  C   UNL d   1      36.329 -11.067   9.727  0.00  0.00     0.115 C 
ENDROOT
BRANCH   5  10
ATOM     10  N   UNL d   1      37.510 -10.840  14.464  0.00  0.00    -0.339 N 
ATOM     11  C   UNL d   1      38.048 -12.064  14.855  0.00  0.00     0.275 C 
ATOM     12  O   UNL d   1      37.548 -12.687  15.792  0.00  0.00    -0.266 OA
ATOM     13  H   UNL d   1      36.845 -10.378  15.075  0.00  0.00     0.163 HD
BRANCH  11  14
ATOM     14  C   UNL d   1      39.279 -12.671  14.171  0.00  0.00     0.180 C 
ATOM     15  N   UNL d   1      39.340 -13.541  13.208  0.00  0.00    -0.126 NA
BRANCH  15  16
ATOM     16  O   UNL d   1      38.131 -14.006  12.687  0.00  0.00    -0.261 OA
ATOM     17  C   UNL d   1      37.671 -15.027  13.591  0.00  0.00     0.240 C 
ENDBRANCH  15  16
BRANCH  14  18
ATOM     18  C   UNL d   1      40.590 -12.328  14.744  0.00  0.00     0.102 A 
ATOM     19  N   UNL d   1      40.819 -12.346  16.114  0.00  0.00    -0.222 NA
ATOM     20  C   UNL d   1      42.088 -12.154  16.366  0.00  0.00     0.164 A 
ATOM     21  S   UNL d   1      43.077 -11.841  15.002  0.00  0.00    -0.062 SA
ATOM     22  C   UNL d   1      41.710 -12.022  13.987  0.00  0.00     0.087 A 
BRANCH  20  23
ATOM     23  N   UNL d   1      42.596 -12.194  17.605  0.00  0.00    -0.378 N 
ATOM     24  H   UNL d   1      42.114 -12.723  18.319  0.00  0.00     0.158 HD
ATOM     25  H   UNL d   1      43.606 -12.181  17.677  0.00  0.00     0.158 HD
ENDBRANCH  20  23
ENDBRANCH  14  18
ENDBRANCH  11  14
ENDBRANCH   5  10
BRANCH   7  26
ATOM     26  C   UNL d   1      37.993  -7.505   9.728  0.00  0.00     0.194 C 
ATOM     27  OXT UNL d   1      39.171  -7.169   9.760  0.00  0.00    -0.645 OA
BRANCH  26  28
ATOM     28  O   UNL d   1      37.027  -6.627   9.416  0.00  0.00    -0.772 OA
ATOM     29  H   UNL d   1      37.328  -5.710   9.243  0.00  0.00     0.167 HD
ENDBRANCH  26  28
ENDBRANCH   7  26
BRANCH   8  30
ATOM     30  C   UNL d   1      36.236  -9.213   8.015  0.00  0.00     0.216 C 
BRANCH  30  31
ATOM     31  O   UNL d   1      37.282  -8.601   7.247  0.00  0.00    -0.317 OA
BRANCH  31  32
ATOM     32  C   UNL d   1      36.890  -7.742   6.270  0.00  0.00     0.255 C 
ATOM     33  O   UNL d   1      37.198  -6.563   6.196  0.00  0.00    -0.266 OA
ATOM     34  C   UNL d   1      36.030  -8.456   5.274  0.00  0.00     0.126 C 
ENDBRANCH  31  32
ENDBRANCH  30  31
ENDBRANCH   8  30
TORSDOF 10
ENDMDL
MODEL 5
REMARK VINA RESULT:      -6.8      3.033      7.853
REMARK  10 active torsions:
REMARK  status: ('A' for Active; 'I' for Inactive)
REMARK    1  A    between atoms: O_4  and  C_21 
REMARK    2  A    between atoms: O_4  and  C_26 
REMARK    3  A    between atoms: O_5  and  C_22 
REMARK    4  A    between atoms: O_8  and  N_12 
REMARK    5  A    between atoms: CA_16  and  N_11 
REMARK       I    between atoms: N_11  and  C_23 
REMARK    6  A    between atoms: N_14  and  C_29 
REMARK    7  A    between atoms: CA_18  and  C_22 
REMARK    8  A    between atoms: C_19  and  C_21 
REMARK    9  A    between atoms: C_23  and  C_24 
REMARK   10  A    between atoms: C_24  and  C_25 
ROOT
ATOM      1  S   UNL d   1      39.928  -8.883  -6.835  0.00  0.00    -0.136 SA
ATOM      2  O   UNL d   1      36.327  -8.484  -4.825  0.00  0.00    -0.271 OA
ATOM      3  N   UNL d   1      38.032  -7.288  -5.864  0.00  0.00    -0.293 N 
ATOM      4  C   UNL d   1      39.409  -7.682  -5.571  0.00  0.00     0.187 C 
ATOM      5  CA  UNL d   1      38.840  -8.242  -4.217  0.00  0.00     0.211 C 
ATOM      6  C   UNL d   1      37.470  -8.136  -4.956  0.00  0.00     0.251 C 
ATOM      7  CA  UNL d   1      37.591  -6.876  -7.103  0.00  0.00     0.117 C 
ATOM      8  C   UNL d   1      38.362  -7.037  -8.219  0.00  0.00    -0.013 C 
ATOM      9  C   UNL d   1      39.723  -7.699  -8.207  0.00  0.00     0.115 C 
ENDROOT
BRANCH   5  10
ATOM     10  N   UNL d   1      39.438  -9.516  -3.680  0.00  0.00    -0.339 N 
ATOM     11  C   UNL d   1      40.260  -9.384  -2.563  0.00  0.00     0.275 C 
ATOM     12  O   UNL d   1      40.798 -10.377  -2.071  0.00  0.00    -0.266 OA
ATOM     13  H   UNL d   1      39.127 -10.442  -3.954  0.00  0.00     0.163 HD
BRANCH  11  14
ATOM     14  C   UNL d   1      40.511  -8.029  -1.889  0.00  0.00     0.180 C 
ATOM     15  N   UNL d   1      41.521  -7.222  -2.017  0.00  0.00    -0.126 NA
BRANCH  15  16
ATOM     16  O   UNL d   1      42.540  -7.603  -2.892  0.00  0.00    -0.261 OA
ATOM     17  C   UNL d   1      43.648  -8.004  -2.068  0.00  0.00     0.240 C 
ENDBRANCH  15  16
BRANCH  14  18
ATOM     18  C   UNL d   1      39.547  -7.615  -0.859  0.00  0.00     0.102 A 
ATOM     19  N   UNL d   1      39.594  -8.119   0.434  0.00  0.00    -0.222 NA
ATOM     20  C   UNL d   1      38.736  -7.493   1.199  0.00  0.00     0.164 A 
ATOM     21  S   UNL d   1      37.749  -6.334   0.412  0.00  0.00    -0.062 SA
ATOM     22  C   UNL d   1      38.562  -6.660  -1.059  0.00  0.00     0.087 A 
BRANCH  20  23
ATOM     23  N   UNL d   1      38.624  -7.732   2.512  0.00  0.00    -0.378 N 
ATOM     24  H   UNL d   1      39.348  -8.259   2.981  0.00  0.00     0.158 HD
ATOM     25  H   UNL d   1      38.183  -7.007   3.065  0.00  0.00     0.158 HD
ENDBRANCH  20  23
ENDBRANCH  14  18
ENDBRANCH  11  14
ENDBRANCH   5  10
BRANCH   7  26
ATOM     26  C   UNL d   1      36.279  -6.111  -7.173  0.00  0.00     0.194 C 
ATOM     27  OXT UNL d   1      36.213  -4.888  -7.136  0.00  0.00    -0.645 OA
BRANCH  26  28
ATOM     28  O   UNL d   1      35.173  -6.869  -7.123  0.00  0.00    -0.772 OA
ATOM     29  H   UNL d   1      35.307  -7.795  -6.827  0.00  0.00     0.167 HD
ENDBRANCH  26  28
ENDBRANCH   7  26
BRANCH   8  30
ATOM     30  C   UNL d   1      37.918  -6.639  -9.619  0.00  0.00     0.216 C 
BRANCH  30  31
ATOM     31  O   UNL d   1      37.187  -7.710 -10.234  0.00  0.00    -0.317 OA
BRANCH  31  32
ATOM     32  C   UNL d   1      35.862  -7.494 -10.442  0.00  0.00     0.255 C 
ATOM     33  O   UNL d   1      34.951  -8.032  -9.831  0.00  0.00    -0.266 OA
ATOM     34  C   UNL d   1      35.671  -6.481 -11.528  0.00  0.00     0.126 C 
ENDBRANCH  31  32
ENDBRANCH  30  31
ENDBRANCH   8  30
TORSDOF 10
ENDMDL
MODEL 6
REMARK VINA RESULT:      -6.8      3.724      6.292
REMARK  10 active torsions:
REMARK  status: ('A' for Active; 'I' for Inactive)
REMARK    1  A    between atoms: O_4  and  C_21 
REMARK    2  A    between atoms: O_4  and  C_26 
REMARK    3  A    between atoms: O_5  and  C_22 
REMARK    4  A    between atoms: O_8  and  N_12 
REMARK    5  A    between atoms: CA_16  and  N_11 
REMARK       I    between atoms: N_11  and  C_23 
REMARK    6  A    between atoms: N_14  and  C_29 
REMARK    7  A    between atoms: CA_18  and  C_22 
REMARK    8  A    between atoms: C_19  and  C_21 
REMARK    9  A    between atoms: C_23  and  C_24 
REMARK   10  A    between atoms: C_24  and  C_25 
ROOT
ATOM      1  S   UNL d   1      38.293 -10.960  -3.628  0.00  0.00    -0.136 SA
ATOM      2  O   UNL d   1      39.948  -8.601  -0.650  0.00  0.00    -0.271 OA
ATOM      3  N   UNL d   1      38.888  -8.530  -2.722  0.00  0.00    -0.293 N 
ATOM      4  C   UNL d   1      39.337  -9.474  -3.743  0.00  0.00     0.187 C 
ATOM      5  CA  UNL d   1      40.708  -9.479  -2.973  0.00  0.00     0.211 C 
ATOM      6  C   UNL d   1      39.858  -8.858  -1.821  0.00  0.00     0.251 C 
ATOM      7  CA  UNL d   1      37.574  -8.159  -2.533  0.00  0.00     0.117 C 
ATOM      8  C   UNL d   1      36.553  -8.837  -3.136  0.00  0.00    -0.013 C 
ATOM      9  C   UNL d   1      36.760 -10.051  -4.016  0.00  0.00     0.115 C 
ENDROOT
BRANCH   5  10
ATOM     10  N   UNL d   1      41.458 -10.783  -2.889  0.00  0.00    -0.339 N 
ATOM     11  C   UNL d   1      42.803 -10.740  -3.254  0.00  0.00     0.275 C 
ATOM     12  O   UNL d   1      43.482 -11.767  -3.225  0.00  0.00    -0.266 OA
ATOM     13  H   UNL d   1      41.104 -11.605  -2.413  0.00  0.00     0.163 HD
BRANCH  11  14
ATOM     14  C   UNL d   1      43.493  -9.438  -3.675  0.00  0.00     0.180 C 
ATOM     15  N   UNL d   1      43.866  -8.430  -2.944  0.00  0.00    -0.126 NA
BRANCH  15  16
ATOM     16  O   UNL d   1      43.629  -8.512  -1.571  0.00  0.00    -0.261 OA
ATOM     17  C   UNL d   1      43.179  -7.209  -1.162  0.00  0.00     0.240 C 
ENDBRANCH  15  16
BRANCH  14  18
ATOM     18  C   UNL d   1      43.664  -9.218  -5.120  0.00  0.00     0.102 A 
ATOM     19  N   UNL d   1      42.645  -8.700  -5.908  0.00  0.00    -0.222 NA
ATOM     20  C   UNL d   1      43.082  -8.458  -7.117  0.00  0.00     0.164 A 
ATOM     21  S   UNL d   1      44.704  -8.920  -7.426  0.00  0.00    -0.062 SA
ATOM     22  C   UNL d   1      44.849  -9.443  -5.802  0.00  0.00     0.087 A 
BRANCH  20  23
ATOM     23  N   UNL d   1      42.324  -7.888  -8.063  0.00  0.00    -0.378 N 
ATOM     24  H   UNL d   1      41.956  -6.960  -7.907  0.00  0.00     0.158 HD
ATOM     25  H   UNL d   1      42.562  -8.109  -9.022  0.00  0.00     0.158 HD
ENDBRANCH  20  23
ENDBRANCH  14  18
ENDBRANCH  11  14
ENDBRANCH   5  10
BRANCH   7  26
ATOM     26  C   UNL d   1      37.299  -6.887  -1.746  0.00  0.00     0.194 C 
ATOM     27  OXT UNL d   1      36.873  -6.887  -0.598  0.00  0.00    -0.645 OA
BRANCH  26  28
ATOM     28  O   UNL d   1      37.408  -5.748  -2.448  0.00  0.00    -0.772 OA
ATOM     29  H   UNL d   1      37.539  -5.857  -3.414  0.00  0.00     0.167 HD
ENDBRANCH  26  28
ENDBRANCH   7  26
BRANCH   8  30
ATOM     30  C   UNL d   1      35.082  -8.502  -2.938  0.00  0.00     0.216 C 
BRANCH  30  31
ATOM     31  O   UNL d   1      34.319  -8.910  -4.083  0.00  0.00    -0.317 OA
BRANCH  31  32
ATOM     32  C   UNL d   1      33.254  -8.131  -4.408  0.00  0.00     0.255 C 
ATOM     33  O   UNL d   1      32.995  -7.043  -3.918  0.00  0.00    -0.266 OA
ATOM     34  C   UNL d   1      32.440  -8.794  -5.476  0.00  0.00     0.126 C 
ENDBRANCH  31  32
ENDBRANCH  30  31
ENDBRANCH   8  30
TORSDOF 10
ENDMDL
MODEL 7
REMARK VINA RESULT:      -6.7     12.929     18.064
REMARK  10 active torsions:
REMARK  status: ('A' for Active; 'I' for Inactive)
REMARK    1  A    between atoms: O_4  and  C_21 
REMARK    2  A    between atoms: O_4  and  C_26 
REMARK    3  A    between atoms: O_5  and  C_22 
REMARK    4  A    between atoms: O_8  and  N_12 
REMARK    5  A    between atoms: CA_16  and  N_11 
REMARK       I    between atoms: N_11  and  C_23 
REMARK    6  A    between atoms: N_14  and  C_29 
REMARK    7  A    between atoms: CA_18  and  C_22 
REMARK    8  A    between atoms: C_19  and  C_21 
REMARK    9  A    between atoms: C_23  and  C_24 
REMARK   10  A    between atoms: C_24  and  C_25 
ROOT
ATOM      1  S   UNL d   1      36.769 -12.644  11.095  0.00  0.00    -0.136 SA
ATOM      2  O   UNL d   1      37.317 -11.084  14.894  0.00  0.00    -0.271 OA
ATOM      3  N   UNL d   1      38.163 -11.070  12.726  0.00  0.00    -0.293 N 
ATOM      4  C   UNL d   1      38.295 -12.356  12.044  0.00  0.00     0.187 C 
ATOM      5  CA  UNL d   1      38.392 -12.980  13.484  0.00  0.00     0.211 C 
ATOM      6  C   UNL d   1      37.796 -11.608  13.924  0.00  0.00     0.251 C 
ATOM      7  CA  UNL d   1      37.774  -9.901  12.108  0.00  0.00     0.117 C 
ATOM      8  C   UNL d   1      37.245  -9.908  10.848  0.00  0.00    -0.013 C 
ATOM      9  C   UNL d   1      37.007 -11.170  10.048  0.00  0.00     0.115 C 
ENDROOT
BRANCH   5  10
ATOM     10  N   UNL d   1      37.742 -14.320  13.711  0.00  0.00    -0.339 N 
ATOM     11  C   UNL d   1      38.410 -15.186  14.574  0.00  0.00     0.275 C 
ATOM     12  O   UNL d   1      37.951 -16.306  14.802  0.00  0.00    -0.266 OA
ATOM     13  H   UNL d   1      36.789 -14.535  13.439  0.00  0.00     0.163 HD
BRANCH  11  14
ATOM     14  C   UNL d   1      39.709 -14.789  15.287  0.00  0.00     0.180 C 
ATOM     15  N   UNL d   1      40.940 -15.015  14.940  0.00  0.00    -0.126 NA
BRANCH  15  16
ATOM     16  O   UNL d   1      41.153 -15.708  13.746  0.00  0.00    -0.261 OA
ATOM     17  C   UNL d   1      42.411 -16.389  13.897  0.00  0.00     0.240 C 
ENDBRANCH  15  16
BRANCH  14  18
ATOM     18  C   UNL d   1      39.571 -14.166  16.613  0.00  0.00     0.102 A 
ATOM     19  N   UNL d   1      40.431 -13.164  17.044  0.00  0.00    -0.222 NA
ATOM     20  C   UNL d   1      40.018 -12.670  18.184  0.00  0.00     0.164 A 
ATOM     21  S   UNL d   1      38.640 -13.427  18.865  0.00  0.00    -0.062 SA
ATOM     22  C   UNL d   1      38.559 -14.469  17.509  0.00  0.00     0.087 A 
BRANCH  20  23
ATOM     23  N   UNL d   1      40.623 -11.641  18.791  0.00  0.00    -0.378 N 
ATOM     24  H   UNL d   1      40.210 -11.248  19.625  0.00  0.00     0.158 HD
ATOM     25  H   UNL d   1      41.635 -11.632  18.757  0.00  0.00     0.158 HD
ENDBRANCH  20  23
ENDBRANCH  14  18
ENDBRANCH  11  14
ENDBRANCH   5  10
BRANCH   7  26
ATOM     26  C   UNL d   1      38.080  -8.588  12.811  0.00  0.00     0.194 C 
ATOM     27  OXT UNL d   1      37.347  -8.094  13.659  0.00  0.00    -0.645 OA
BRANCH  26  28
ATOM     28  O   UNL d   1      39.139  -7.917  12.330  0.00  0.00    -0.772 OA
ATOM     29  H   UNL d   1      38.939  -7.248  11.641  0.00  0.00     0.167 HD
ENDBRANCH  26  28
ENDBRANCH   7  26
BRANCH   8  30
ATOM     30  C   UNL d   1      36.763  -8.658  10.127  0.00  0.00     0.216 C 
BRANCH  30  31
ATOM     31  O   UNL d   1      37.455  -8.504   8.880  0.00  0.00    -0.317 OA
BRANCH  31  32
ATOM     32  C   UNL d   1      38.188  -7.369   8.733  0.00  0.00     0.255 C 
ATOM     33  O   UNL d   1      38.886  -6.858   9.596  0.00  0.00    -0.266 OA
ATOM     34  C   UNL d   1      38.033  -6.833   7.344  0.00  0.00     0.126 C 
ENDBRANCH  31  32
ENDBRANCH  30  31
ENDBRANCH   8  30
TORSDOF 10
ENDMDL
MODEL 8
REMARK VINA RESULT:      -6.6      3.454      5.382
REMARK  10 active torsions:
REMARK  status: ('A' for Active; 'I' for Inactive)
REMARK    1  A    between atoms: O_4  and  C_21 
REMARK    2  A    between atoms: O_4  and  C_26 
REMARK    3  A    between atoms: O_5  and  C_22 
REMARK    4  A    between atoms: O_8  and  N_12 
REMARK    5  A    between atoms: CA_16  and  N_11 
REMARK       I    between atoms: N_11  and  C_23 
REMARK    6  A    between atoms: N_14  and  C_29 
REMARK    7  A    between atoms: CA_18  and  C_22 
REMARK    8  A    between atoms: C_19  and  C_21 
REMARK    9  A    between atoms: C_23  and  C_24 
REMARK   10  A    between atoms: C_24  and  C_25 
ROOT
ATOM      1  S   UNL d   1      40.215  -7.112  -5.661  0.00  0.00    -0.136 SA
ATOM      2  O   UNL d   1      36.739  -5.577  -7.313  0.00  0.00    -0.271 OA
ATOM      3  N   UNL d   1      37.582  -7.302  -5.997  0.00  0.00    -0.293 N 
ATOM      4  C   UNL d   1      38.809  -7.958  -6.447  0.00  0.00     0.187 C 
ATOM      5  CA  UNL d   1      38.389  -7.497  -7.890  0.00  0.00     0.211 C 
ATOM      6  C   UNL d   1      37.443  -6.532  -7.113  0.00  0.00     0.251 C 
ATOM      7  CA  UNL d   1      37.285  -7.036  -4.677  0.00  0.00     0.117 C 
ATOM      8  C   UNL d   1      38.233  -7.151  -3.700  0.00  0.00    -0.013 C 
ATOM      9  C   UNL d   1      39.672  -7.534  -3.972  0.00  0.00     0.115 C 
ENDROOT
BRANCH   5  10
ATOM     10  N   UNL d   1      39.483  -7.067  -8.833  0.00  0.00    -0.339 N 
ATOM     11  C   UNL d   1      39.503  -7.695 -10.076  0.00  0.00     0.275 C 
ATOM     12  O   UNL d   1      40.374  -7.408 -10.899  0.00  0.00    -0.266 OA
ATOM     13  H   UNL d   1      40.054  -6.241  -8.690  0.00  0.00     0.163 HD
BRANCH  11  14
ATOM     14  C   UNL d   1      38.451  -8.733 -10.483  0.00  0.00     0.180 C 
ATOM     15  N   UNL d   1      38.536 -10.030 -10.495  0.00  0.00    -0.126 NA
BRANCH  15  16
ATOM     16  O   UNL d   1      39.739 -10.597 -10.072  0.00  0.00    -0.261 OA
ATOM     17  C   UNL d   1      39.502 -11.100  -8.745  0.00  0.00     0.240 C 
ENDBRANCH  15  16
BRANCH  14  18
ATOM     18  C   UNL d   1      37.200  -8.216 -11.059  0.00  0.00     0.102 A 
ATOM     19  N   UNL d   1      36.083  -9.024 -11.231  0.00  0.00    -0.222 NA
ATOM     20  C   UNL d   1      35.058  -8.308 -11.617  0.00  0.00     0.164 A 
ATOM     21  S   UNL d   1      35.376  -6.647 -11.895  0.00  0.00    -0.062 SA
ATOM     22  C   UNL d   1      37.002  -6.892 -11.419  0.00  0.00     0.087 A 
BRANCH  20  23
ATOM     23  N   UNL d   1      33.834  -8.825 -11.788  0.00  0.00    -0.378 N 
ATOM     24  H   UNL d   1      33.301  -9.108 -10.977  0.00  0.00     0.158 HD
ATOM     25  H   UNL d   1      33.294  -8.455 -12.560  0.00  0.00     0.158 HD
ENDBRANCH  20  23
ENDBRANCH  14  18
ENDBRANCH  11  14
ENDBRANCH   5  10
BRANCH   7  26
ATOM     26  C   UNL d   1      35.836  -6.747  -4.319  0.00  0.00     0.194 C 
ATOM     27  OXT UNL d   1      35.016  -7.625  -4.080  0.00  0.00    -0.645 OA
BRANCH  26  28
ATOM     28  O   UNL d   1      35.467  -5.461  -4.431  0.00  0.00    -0.772 OA
ATOM     29  H   UNL d   1      36.023  -4.817  -3.943  0.00  0.00     0.167 HD
ENDBRANCH  26  28
ENDBRANCH   7  26
BRANCH   8  30
ATOM     30  C   UNL d   1      37.978  -6.836  -2.234  0.00  0.00     0.216 C 
BRANCH  30  31
ATOM     31  O   UNL d   1      39.062  -6.066  -1.693  0.00  0.00    -0.317 OA
BRANCH  31  32
ATOM     32  C   UNL d   1      39.353  -6.272  -0.382  0.00  0.00     0.255 C 
ATOM     33  O   UNL d   1      39.533  -5.397   0.451  0.00  0.00    -0.266 OA
ATOM     34  C   UNL d   1      39.407  -7.740  -0.093  0.00  0.00     0.126 C 
ENDBRANCH  31  32
ENDBRANCH  30  31
ENDBRANCH   8  30
TORSDOF 10
ENDMDL
MODEL 9
REMARK VINA RESULT:      -6.6      2.480      3.863
REMARK  10 active torsions:
REMARK  status: ('A' for Active; 'I' for Inactive)
REMARK    1  A    between atoms: O_4  and  C_21 
REMARK    2  A    between atoms: O_4  and  C_26 
REMARK    3  A    between atoms: O_5  and  C_22 
REMARK    4  A    between atoms: O_8  and  N_12 
REMARK    5  A    between atoms: CA_16  and  N_11 
REMARK       I    between atoms: N_11  and  C_23 
REMARK    6  A    between atoms: N_14  and  C_29 
REMARK    7  A    between atoms: CA_18  and  C_22 
REMARK    8  A    between atoms: C_19  and  C_21 
REMARK    9  A    between atoms: C_23  and  C_24 
REMARK   10  A    between atoms: C_24  and  C_25 
ROOT
ATOM      1  S   UNL d   1      37.328  -8.868  -2.717  0.00  0.00    -0.136 SA
ATOM      2  O   UNL d   1      41.467  -8.730  -2.842  0.00  0.00    -0.271 OA
ATOM      3  N   UNL d   1      39.558  -7.421  -2.600  0.00  0.00    -0.293 N 
ATOM      4  C   UNL d   1      38.445  -7.673  -3.514  0.00  0.00     0.187 C 
ATOM      5  CA  UNL d   1      39.533  -8.232  -4.501  0.00  0.00     0.211 C 
ATOM      6  C   UNL d   1      40.416  -8.282  -3.217  0.00  0.00     0.251 C 
ATOM      7  CA  UNL d   1      39.409  -7.099  -1.268  0.00  0.00     0.117 C 
ATOM      8  C   UNL d   1      38.204  -7.229  -0.638  0.00  0.00    -0.013 C 
ATOM      9  C   UNL d   1      36.959  -7.761  -1.315  0.00  0.00     0.115 C 
ENDROOT
BRANCH   5  10
ATOM     10  N   UNL d   1      39.165  -9.423  -5.346  0.00  0.00    -0.339 N 
ATOM     11  C   UNL d   1      39.631  -9.412  -6.659  0.00  0.00     0.275 C 
ATOM     12  O   UNL d   1      39.362 -10.343  -7.418  0.00  0.00    -0.266 OA
ATOM     13  H   UNL d   1      38.783 -10.284  -4.968  0.00  0.00     0.163 HD
BRANCH  11  14
ATOM     14  C   UNL d   1      40.505  -8.276  -7.205  0.00  0.00     0.180 C 
ATOM     15  N   UNL d   1      40.153  -7.201  -7.844  0.00  0.00    -0.126 NA
BRANCH  15  16
ATOM     16  O   UNL d   1      38.789  -7.012  -8.078  0.00  0.00    -0.261 OA
ATOM     17  C   UNL d   1      38.623  -7.016  -9.507  0.00  0.00     0.240 C 
ENDBRANCH  15  16
BRANCH  14  18
ATOM     18  C   UNL d   1      41.962  -8.459  -7.110  0.00  0.00     0.102 A 
ATOM     19  N   UNL d   1      42.543  -9.190  -6.083  0.00  0.00    -0.222 NA
ATOM     20  C   UNL d   1      43.826  -9.336  -6.297  0.00  0.00     0.164 A 
ATOM     21  S   UNL d   1      44.443  -8.533  -7.679  0.00  0.00    -0.062 SA
ATOM     22  C   UNL d   1      42.865  -7.983  -8.048  0.00  0.00     0.087 A 
BRANCH  20  23
ATOM     23  N   UNL d   1      44.618 -10.061  -5.496  0.00  0.00    -0.378 N 
ATOM     24  H   UNL d   1      44.862 -11.004  -5.767  0.00  0.00     0.158 HD
ATOM     25  H   UNL d   1      45.333  -9.552  -4.991  0.00  0.00     0.158 HD
ENDBRANCH  20  23
ENDBRANCH  14  18
ENDBRANCH  11  14
ENDBRANCH   5  10
BRANCH   7  26
ATOM     26  C   UNL d   1      40.590  -6.462  -0.553  0.00  0.00     0.194 C 
ATOM     27  OXT UNL d   1      40.766  -5.251  -0.494  0.00  0.00    -0.645 OA
BRANCH  26  28
ATOM     28  O   UNL d   1      41.524  -7.323  -0.116  0.00  0.00    -0.772 OA
ATOM     29  H   UNL d   1      42.298  -6.917   0.329  0.00  0.00     0.167 HD
ENDBRANCH  26  28
ENDBRANCH   7  26
BRANCH   8  30
ATOM     30  C   UNL d   1      37.984  -6.927   0.837  0.00  0.00     0.216 C 
BRANCH  30  31
ATOM     31  O   UNL d   1      37.764  -8.142   1.568  0.00  0.00    -0.317 OA
BRANCH  31  32
ATOM     32  C   UNL d   1      38.081  -8.117   2.889  0.00  0.00     0.255 C 
ATOM     33  O   UNL d   1      39.151  -7.757   3.356  0.00  0.00    -0.266 OA
ATOM     34  C   UNL d   1      36.916  -8.584   3.705  0.00  0.00     0.126 C 
ENDBRANCH  31  32
ENDBRANCH  30  31
ENDBRANCH   8  30
TORSDOF 10
ENDMDL
