MODEL 1
REMARK VINA RESULT:      -8.9      0.000      0.000
REMARK  20 active torsions:
REMARK  status: ('A' for Active; 'I' for Inactive)
REMARK    1  A    between atoms: P_1  and  O_4 
REMARK    2  A    between atoms: P_1  and  O_23 
REMARK    3  A    between atoms: P_1  and  O_3 
REMARK    4  A    between atoms: O_4  and  C_5 
REMARK    5  A    between atoms: C_5  and  C_6 
REMARK    6  A    between atoms: C_8  and  O_9 
REMARK    7  A    between atoms: C_10  and  O_11 
REMARK    8  A    between atoms: O_11  and  P_45 
REMARK    9  A    between atoms: C_12  and  N_13 
REMARK   10  A    between atoms: C_17  and  N_18 
REMARK   11  A    between atoms: P_24  and  O_23 
REMARK   12  A    between atoms: P_24  and  O_27 
REMARK   13  A    between atoms: O_27  and  C_28 
REMARK   14  A    between atoms: C_28  and  C_29 
REMARK   15  A    between atoms: C_31  and  O_32 
REMARK   16  A    between atoms: C_33  and  O_34 
REMARK   17  A    between atoms: C_35  and  N_36 
REMARK   18  A    between atoms: C_38  and  C_39 
REMARK       I    between atoms: C_39  and  N_41 
REMARK   19  A    between atoms: P_45  and  O_47 
REMARK   20  A    between atoms: P_45  and  O_48 
ROOT
ATOM      1  P   UNL d   1      25.620  20.801  11.521  0.00  0.00     0.402 P 
ATOM      2  O   UNL d   1      26.893  20.805  12.404  0.00  0.00    -0.631 OA
ENDROOT
BRANCH   1   3
ATOM      3  O   UNL d   1      24.747  19.782  12.613  0.00  0.00    -0.294 OA
BRANCH   3   4
ATOM      4  C   UNL d   1      24.873  20.078  14.002  0.00  0.00     0.215 C 
BRANCH   4   5
ATOM      5  C   UNL d   1      23.590  20.564  14.660  0.00  0.00     0.180 C 
ATOM      6  O   UNL d   1      22.613  20.870  13.667  0.00  0.00    -0.353 OA
ATOM      7  C   UNL d   1      21.451  20.068  13.896  0.00  0.00     0.263 C 
ATOM      8  C   UNL d   1      21.752  19.008  14.968  0.00  0.00     0.214 C 
ATOM      9  C   UNL d   1      22.959  19.628  15.671  0.00  0.00     0.183 C 
BRANCH   7  10
ATOM     10  N   UNL d   1      20.965  19.581  12.620  0.00  0.00    -0.294 N 
ATOM     11  C   UNL d   1      21.520  18.619  11.813  0.00  0.00     0.214 A 
ATOM     12  N   UNL d   1      20.884  18.512  10.663  0.00  0.00    -0.236 NA
ATOM     13  C   UNL d   1      19.886  19.461  10.720  0.00  0.00     0.144 A 
ATOM     14  C   UNL d   1      18.889  19.850   9.811  0.00  0.00     0.135 A 
ATOM     15  C   UNL d   1      19.936  20.154  11.917  0.00  0.00     0.166 A 
ATOM     16  N   UNL d   1      18.091  20.895  10.135  0.00  0.00    -0.228 NA
ATOM     17  C   UNL d   1      18.269  21.486  11.338  0.00  0.00     0.237 A 
ATOM     18  N   UNL d   1      19.162  21.178  12.300  0.00  0.00    -0.222 NA
BRANCH  14  19
ATOM     19  N   UNL d   1      18.690  19.226   8.586  0.00  0.00    -0.285 NA
ATOM     20  H   UNL d   1      19.479  19.321   7.955  0.00  0.00     0.125 HD
ATOM     21  H   UNL d   1      17.761  19.382   8.219  0.00  0.00     0.125 HD
ENDBRANCH  14  19
ENDBRANCH   7  10
BRANCH   8  22
ATOM     22  O   UNL d   1      20.647  18.951  15.868  0.00  0.00    -0.284 OA
BRANCH  22  23
ATOM     23  P   UNL d   1      19.251  18.247  15.586  0.00  0.00     0.391 P 
ATOM     24  O   UNL d   1      18.584  17.659  16.783  0.00  0.00    -0.632 OA
BRANCH  23  25
ATOM     25  O   UNL d   1      18.284  19.244  14.810  0.00  0.00    -0.307 OA
ATOM     26  H   UNL d   1      18.806  19.783  14.185  0.00  0.00     0.222 HD
ENDBRANCH  23  25
BRANCH  23  27
ATOM     27  O   UNL d   1      19.522  17.098  14.511  0.00  0.00    -0.307 OA
ATOM     28  H   UNL d   1      20.132  17.425  13.825  0.00  0.00     0.222 HD
ENDBRANCH  23  27
ENDBRANCH  22  23
ENDBRANCH   8  22
BRANCH   9  29
ATOM     29  O   UNL d   1      22.537  20.435  16.800  0.00  0.00    -0.390 OA
ATOM     30  H   UNL d   1      23.311  20.545  17.383  0.00  0.00     0.210 HD
ENDBRANCH   9  29
ENDBRANCH   4   5
ENDBRANCH   3   4
ENDBRANCH   1   3
BRANCH   1  31
ATOM     31  O   UNL d   1      26.493  21.819  10.429  0.00  0.00    -0.188 OA
BRANCH  31  32
ATOM     32  P   UNL d   1      25.700  21.747   8.894  0.00  0.00     0.417 P 
ATOM     33  O   UNL d   1      25.266  23.198   8.614  0.00  0.00    -0.624 OA
ATOM     34  O   UNL d   1      27.067  21.886   8.180  0.00  0.00    -0.624 OA
BRANCH  32  35
ATOM     35  O   UNL d   1      24.172  21.593   9.691  0.00  0.00    -0.287 OA
BRANCH  35  36
ATOM     36  C   UNL d   1      23.137  22.144   8.855  0.00  0.00     0.216 C 
BRANCH  36  37
ATOM     37  C   UNL d   1      22.102  21.110   8.427  0.00  0.00     0.180 C 
ATOM     38  O   UNL d   1      21.154  21.734   7.528  0.00  0.00    -0.353 OA
ATOM     39  C   UNL d   1      21.236  21.019   6.287  0.00  0.00     0.259 C 
ATOM     40  C   UNL d   1      22.572  20.288   6.241  0.00  0.00     0.198 C 
ATOM     41  C   UNL d   1      22.679  19.893   7.699  0.00  0.00     0.182 C 
BRANCH  39  42
ATOM     42  N   UNL d   1      21.102  21.945   5.146  0.00  0.00    -0.336 N 
ATOM     43  C   UNL d   1      19.941  21.963   4.450  0.00  0.00     0.110 A 
ATOM     44  C   UNL d   1      19.750  22.858   3.401  0.00  0.00     0.047 A 
ATOM     45  C   UNL d   1      20.783  23.722   3.055  0.00  0.00     0.020 A 
ATOM     46  C   UNL d   1      21.982  23.672   3.765  0.00  0.00     0.018 A 
ATOM     47  C   UNL d   1      22.122  22.773   4.812  0.00  0.00     0.093 A 
BRANCH  44  48
ATOM     48  C   UNL d   1      18.427  22.823   2.734  0.00  0.00     0.250 C 
ATOM     49  O   UNL d   1      17.774  23.855   2.622  0.00  0.00    -0.268 OA
ATOM     50  N   UNL d   1      17.960  21.640   2.244  0.00  0.00    -0.366 N 
ATOM     51  H   UNL d   1      18.426  20.746   2.293  0.00  0.00     0.159 HD
ATOM     52  H   UNL d   1      17.046  21.654   1.804  0.00  0.00     0.159 HD
ENDBRANCH  44  48
ENDBRANCH  39  42
BRANCH  40  53
ATOM     53  O   UNL d   1      22.535  19.186   5.335  0.00  0.00    -0.388 OA
ATOM     54  H   UNL d   1      21.601  19.080   5.060  0.00  0.00     0.210 HD
ENDBRANCH  40  53
BRANCH  41  55
ATOM     55  O   UNL d   1      21.810  18.759   7.882  0.00  0.00    -0.390 OA
ATOM     56  H   UNL d   1      22.076  18.302   8.706  0.00  0.00     0.210 HD
ENDBRANCH  41  55
ENDBRANCH  36  37
ENDBRANCH  35  36
ENDBRANCH  32  35
ENDBRANCH  31  32
ENDBRANCH   1  31
BRANCH   1  57
ATOM     57  O   UNL d   1      25.928  19.502  10.551  0.00  0.00    -0.307 OA
ATOM     58  H   UNL d   1      25.533  19.732   9.695  0.00  0.00     0.222 HD
ENDBRANCH   1  57
TORSDOF 20
ENDMDL
MODEL 2
REMARK VINA RESULT:      -8.9      3.726      7.630
REMARK  20 active torsions:
REMARK  status: ('A' for Active; 'I' for Inactive)
REMARK    1  A    between atoms: P_1  and  O_4 
REMARK    2  A    between atoms: P_1  and  O_23 
REMARK    3  A    between atoms: P_1  and  O_3 
REMARK    4  A    between atoms: O_4  and  C_5 
REMARK    5  A    between atoms: C_5  and  C_6 
REMARK    6  A    between atoms: C_8  and  O_9 
REMARK    7  A    between atoms: C_10  and  O_11 
REMARK    8  A    between atoms: O_11  and  P_45 
REMARK    9  A    between atoms: C_12  and  N_13 
REMARK   10  A    between atoms: C_17  and  N_18 
REMARK   11  A    between atoms: P_24  and  O_23 
REMARK   12  A    between atoms: P_24  and  O_27 
REMARK   13  A    between atoms: O_27  and  C_28 
REMARK   14  A    between atoms: C_28  and  C_29 
REMARK   15  A    between atoms: C_31  and  O_32 
REMARK   16  A    between atoms: C_33  and  O_34 
REMARK   17  A    between atoms: C_35  and  N_36 
REMARK   18  A    between atoms: C_38  and  C_39 
REMARK       I    between atoms: C_39  and  N_41 
REMARK   19  A    between atoms: P_45  and  O_47 
REMARK   20  A    between atoms: P_45  and  O_48 
ROOT
ATOM      1  P   UNL d   1      22.474  20.659   6.485  0.00  0.00     0.402 P 
ATOM      2  O   UNL d   1      22.541  19.425   5.550  0.00  0.00    -0.631 OA
ENDROOT
BRANCH   1   3
ATOM      3  O   UNL d   1      24.188  20.694   6.720  0.00  0.00    -0.294 OA
BRANCH   3   4
ATOM      4  C   UNL d   1      24.724  21.864   7.334  0.00  0.00     0.215 C 
BRANCH   4   5
ATOM      5  C   UNL d   1      25.907  21.603   8.255  0.00  0.00     0.180 C 
ATOM      6  O   UNL d   1      25.616  22.063   9.573  0.00  0.00    -0.353 OA
ATOM      7  C   UNL d   1      25.723  20.966  10.483  0.00  0.00     0.263 C 
ATOM      8  C   UNL d   1      25.879  19.652   9.699  0.00  0.00     0.214 C 
ATOM      9  C   UNL d   1      26.378  20.165   8.350  0.00  0.00     0.183 C 
BRANCH   7  10
ATOM     10  N   UNL d   1      24.624  21.034  11.425  0.00  0.00    -0.294 N 
ATOM     11  C   UNL d   1      23.381  21.584  11.236  0.00  0.00     0.214 A 
ATOM     12  N   UNL d   1      22.669  21.586  12.346  0.00  0.00    -0.236 NA
ATOM     13  C   UNL d   1      23.496  21.033  13.300  0.00  0.00     0.144 A 
ATOM     14  C   UNL d   1      23.330  20.775  14.670  0.00  0.00     0.135 A 
ATOM     15  C   UNL d   1      24.724  20.707  12.753  0.00  0.00     0.166 A 
ATOM     16  N   UNL d   1      24.383  20.285  15.367  0.00  0.00    -0.228 NA
ATOM     17  C   UNL d   1      25.530  20.030  14.697  0.00  0.00     0.237 A 
ATOM     18  N   UNL d   1      25.791  20.202  13.387  0.00  0.00    -0.222 NA
BRANCH  14  19
ATOM     19  N   UNL d   1      22.143  21.012  15.352  0.00  0.00    -0.285 NA
ATOM     20  H   UNL d   1      22.216  21.759  16.034  0.00  0.00     0.125 HD
ATOM     21  H   UNL d   1      21.676  20.158  15.623  0.00  0.00     0.125 HD
ENDBRANCH  14  19
ENDBRANCH   7  10
BRANCH   8  22
ATOM     22  O   UNL d   1      26.896  18.871  10.325  0.00  0.00    -0.284 OA
BRANCH  22  23
ATOM     23  P   UNL d   1      27.086  17.300  10.179  0.00  0.00     0.391 P 
ATOM     24  O   UNL d   1      27.666  16.618  11.371  0.00  0.00    -0.632 OA
BRANCH  23  25
ATOM     25  O   UNL d   1      25.718  16.624   9.728  0.00  0.00    -0.307 OA
ATOM     26  H   UNL d   1      25.906  15.773   9.288  0.00  0.00     0.222 HD
ENDBRANCH  23  25
BRANCH  23  27
ATOM     27  O   UNL d   1      28.037  17.066   8.918  0.00  0.00    -0.307 OA
ATOM     28  H   UNL d   1      27.554  16.579   8.226  0.00  0.00     0.222 HD
ENDBRANCH  23  27
ENDBRANCH  22  23
ENDBRANCH   8  22
BRANCH   9  29
ATOM     29  O   UNL d   1      27.828  20.184   8.312  0.00  0.00    -0.390 OA
ATOM     30  H   UNL d   1      28.112  21.085   8.551  0.00  0.00     0.210 HD
ENDBRANCH   9  29
ENDBRANCH   4   5
ENDBRANCH   3   4
ENDBRANCH   1   3
BRANCH   1  31
ATOM     31  O   UNL d   1      20.761  20.622   6.250  0.00  0.00    -0.188 OA
BRANCH  31  32
ATOM     32  P   UNL d   1      20.097  22.034   6.996  0.00  0.00     0.417 P 
ATOM     33  O   UNL d   1      21.190  22.504   7.975  0.00  0.00    -0.624 OA
ATOM     34  O   UNL d   1      20.606  22.897   5.817  0.00  0.00    -0.624 OA
BRANCH  32  35
ATOM     35  O   UNL d   1      19.529  21.069   8.315  0.00  0.00    -0.287 OA
BRANCH  35  36
ATOM     36  C   UNL d   1      19.693  21.796   9.547  0.00  0.00     0.216 C 
BRANCH  36  37
ATOM     37  C   UNL d   1      18.626  21.463  10.584  0.00  0.00     0.180 C 
ATOM     38  O   UNL d   1      18.273  20.063  10.467  0.00  0.00    -0.353 OA
ATOM     39  C   UNL d   1      18.580  19.457  11.730  0.00  0.00     0.259 C 
ATOM     40  C   UNL d   1      19.581  20.345  12.459  0.00  0.00     0.198 C 
ATOM     41  C   UNL d   1      19.052  21.699  12.035  0.00  0.00     0.182 C 
BRANCH  39  42
ATOM     42  N   UNL d   1      19.123  18.099  11.534  0.00  0.00    -0.336 N 
ATOM     43  C   UNL d   1      20.394  17.960  11.090  0.00  0.00     0.110 A 
ATOM     44  C   UNL d   1      20.967  16.701  10.942  0.00  0.00     0.047 A 
ATOM     45  C   UNL d   1      20.203  15.575  11.232  0.00  0.00     0.020 A 
ATOM     46  C   UNL d   1      18.887  15.735  11.662  0.00  0.00     0.018 A 
ATOM     47  C   UNL d   1      18.363  17.012  11.808  0.00  0.00     0.093 A 
BRANCH  44  48
ATOM     48  C   UNL d   1      22.379  16.664  10.491  0.00  0.00     0.250 C 
ATOM     49  O   UNL d   1      23.217  16.069  11.160  0.00  0.00    -0.268 OA
ATOM     50  N   UNL d   1      22.721  17.284   9.327  0.00  0.00    -0.366 N 
ATOM     51  H   UNL d   1      22.101  17.796   8.716  0.00  0.00     0.159 HD
ATOM     52  H   UNL d   1      23.698  17.247   9.057  0.00  0.00     0.159 HD
ENDBRANCH  44  48
ENDBRANCH  39  42
BRANCH  40  53
ATOM     53  O   UNL d   1      19.554  20.118  13.867  0.00  0.00    -0.388 OA
ATOM     54  H   UNL d   1      19.523  19.147  13.995  0.00  0.00     0.210 HD
ENDBRANCH  40  53
BRANCH  41  55
ATOM     55  O   UNL d   1      17.890  21.959  12.848  0.00  0.00    -0.390 OA
ATOM     56  H   UNL d   1      17.291  22.545  12.342  0.00  0.00     0.210 HD
ENDBRANCH  41  55
ENDBRANCH  36  37
ENDBRANCH  35  36
ENDBRANCH  32  35
ENDBRANCH  31  32
ENDBRANCH   1  31
BRANCH   1  57
ATOM     57  O   UNL d   1      22.286  19.920   7.949  0.00  0.00    -0.307 OA
ATOM     58  H   UNL d   1      22.405  18.974   7.766  0.00  0.00     0.222 HD
ENDBRANCH   1  57
TORSDOF 20
ENDMDL
MODEL 3
REMARK VINA RESULT:      -8.9      6.828     13.487
REMARK  20 active torsions:
REMARK  status: ('A' for Active; 'I' for Inactive)
REMARK    1  A    between atoms: P_1  and  O_4 
REMARK    2  A    between atoms: P_1  and  O_23 
REMARK    3  A    between atoms: P_1  and  O_3 
REMARK    4  A    between atoms: O_4  and  C_5 
REMARK    5  A    between atoms: C_5  and  C_6 
REMARK    6  A    between atoms: C_8  and  O_9 
REMARK    7  A    between atoms: C_10  and  O_11 
REMARK    8  A    between atoms: O_11  and  P_45 
REMARK    9  A    between atoms: C_12  and  N_13 
REMARK   10  A    between atoms: C_17  and  N_18 
REMARK   11  A    between atoms: P_24  and  O_23 
REMARK   12  A    between atoms: P_24  and  O_27 
REMARK   13  A    between atoms: O_27  and  C_28 
REMARK   14  A    between atoms: C_28  and  C_29 
REMARK   15  A    between atoms: C_31  and  O_32 
REMARK   16  A    between atoms: C_33  and  O_34 
REMARK   17  A    between atoms: C_35  and  N_36 
REMARK   18  A    between atoms: C_38  and  C_39 
REMARK       I    between atoms: C_39  and  N_41 
REMARK   19  A    between atoms: P_45  and  O_47 
REMARK   20  A    between atoms: P_45  and  O_48 
ROOT
ATOM      1  P   UNL d   1      17.799  21.105   2.122  0.00  0.00     0.402 P 
ATOM      2  O   UNL d   1      16.336  20.762   2.503  0.00  0.00    -0.631 OA
ENDROOT
BRANCH   1   3
ATOM      3  O   UNL d   1      17.966  19.708   1.114  0.00  0.00    -0.294 OA
BRANCH   3   4
ATOM      4  C   UNL d   1      17.660  19.877  -0.268  0.00  0.00     0.215 C 
BRANCH   4   5
ATOM      5  C   UNL d   1      17.662  18.586  -1.074  0.00  0.00     0.180 C 
ATOM      6  O   UNL d   1      16.386  17.955  -0.995  0.00  0.00    -0.353 OA
ATOM      7  C   UNL d   1      15.857  17.809  -2.315  0.00  0.00     0.263 C 
ATOM      8  C   UNL d   1      16.729  18.586  -3.314  0.00  0.00     0.214 C 
ATOM      9  C   UNL d   1      18.038  18.711  -2.537  0.00  0.00     0.183 C 
BRANCH   7  10
ATOM     10  N   UNL d   1      14.446  18.140  -2.289  0.00  0.00    -0.294 N 
ATOM     11  C   UNL d   1      13.772  18.903  -1.368  0.00  0.00     0.214 A 
ATOM     12  N   UNL d   1      12.470  18.895  -1.580  0.00  0.00    -0.236 NA
ATOM     13  C   UNL d   1      12.293  18.074  -2.671  0.00  0.00     0.144 A 
ATOM     14  C   UNL d   1      11.150  17.653  -3.371  0.00  0.00     0.135 A 
ATOM     15  C   UNL d   1      13.505  17.574  -3.111  0.00  0.00     0.166 A 
ATOM     16  N   UNL d   1      11.300  16.759  -4.376  0.00  0.00    -0.228 NA
ATOM     17  C   UNL d   1      12.551  16.347  -4.683  0.00  0.00     0.237 A 
ATOM     18  N   UNL d   1      13.716  16.706  -4.110  0.00  0.00    -0.222 NA
BRANCH  14  19
ATOM     19  N   UNL d   1       9.867  18.098  -3.072  0.00  0.00    -0.285 NA
ATOM     20  H   UNL d   1       9.833  18.700  -2.256  0.00  0.00     0.125 HD
ATOM     21  H   UNL d   1       9.175  17.367  -3.159  0.00  0.00     0.125 HD
ENDBRANCH  14  19
ENDBRANCH   7  10
BRANCH   8  22
ATOM     22  O   UNL d   1      16.929  17.770  -4.468  0.00  0.00    -0.284 OA
BRANCH  22  23
ATOM     23  P   UNL d   1      17.791  18.159  -5.745  0.00  0.00     0.391 P 
ATOM     24  O   UNL d   1      18.990  19.001  -5.469  0.00  0.00    -0.632 OA
BRANCH  23  25
ATOM     25  O   UNL d   1      18.173  16.851  -6.565  0.00  0.00    -0.307 OA
ATOM     26  H   UNL d   1      18.399  17.096  -7.483  0.00  0.00     0.222 HD
ENDBRANCH  23  25
BRANCH  23  27
ATOM     27  O   UNL d   1      16.814  18.937  -6.741  0.00  0.00    -0.307 OA
ATOM     28  H   UNL d   1      16.320  19.620  -6.252  0.00  0.00     0.222 HD
ENDBRANCH  23  27
ENDBRANCH  22  23
ENDBRANCH   8  22
BRANCH   9  29
ATOM     29  O   UNL d   1      18.927  17.608  -2.848  0.00  0.00    -0.390 OA
ATOM     30  H   UNL d   1      19.577  17.547  -2.125  0.00  0.00     0.210 HD
ENDBRANCH   9  29
ENDBRANCH   4   5
ENDBRANCH   3   4
ENDBRANCH   1   3
BRANCH   1  31
ATOM     31  O   UNL d   1      17.631  22.501   3.130  0.00  0.00    -0.188 OA
BRANCH  31  32
ATOM     32  P   UNL d   1      18.700  23.718   2.525  0.00  0.00     0.417 P 
ATOM     33  O   UNL d   1      19.016  23.275   1.084  0.00  0.00    -0.624 OA
ATOM     34  O   UNL d   1      17.483  24.587   2.123  0.00  0.00    -0.624 OA
BRANCH  32  35
ATOM     35  O   UNL d   1      20.059  22.746   2.973  0.00  0.00    -0.287 OA
BRANCH  35  36
ATOM     36  C   UNL d   1      20.589  23.213   4.228  0.00  0.00     0.216 C 
BRANCH  36  37
ATOM     37  C   UNL d   1      22.050  22.832   4.439  0.00  0.00     0.180 C 
ATOM     38  O   UNL d   1      22.372  22.950   5.845  0.00  0.00    -0.353 OA
ATOM     39  C   UNL d   1      22.779  21.645   6.283  0.00  0.00     0.259 C 
ATOM     40  C   UNL d   1      22.236  20.617   5.298  0.00  0.00     0.198 C 
ATOM     41  C   UNL d   1      22.403  21.404   4.014  0.00  0.00     0.182 C 
BRANCH  39  42
ATOM     42  N   UNL d   1      22.287  21.380   7.648  0.00  0.00    -0.336 N 
ATOM     43  C   UNL d   1      20.980  21.076   7.826  0.00  0.00     0.110 A 
ATOM     44  C   UNL d   1      20.483  20.766   9.087  0.00  0.00     0.047 A 
ATOM     45  C   UNL d   1      21.345  20.798  10.178  0.00  0.00     0.020 A 
ATOM     46  C   UNL d   1      22.683  21.139   9.982  0.00  0.00     0.018 A 
ATOM     47  C   UNL d   1      23.136  21.428   8.703  0.00  0.00     0.093 A 
BRANCH  44  48
ATOM     48  C   UNL d   1      19.047  20.405   9.164  0.00  0.00     0.250 C 
ATOM     49  O   UNL d   1      18.237  21.218   9.596  0.00  0.00    -0.268 OA
ATOM     50  N   UNL d   1      18.648  19.173   8.739  0.00  0.00    -0.366 N 
ATOM     51  H   UNL d   1      19.242  18.445   8.372  0.00  0.00     0.159 HD
ATOM     52  H   UNL d   1      17.660  18.958   8.818  0.00  0.00     0.159 HD
ENDBRANCH  44  48
ENDBRANCH  39  42
BRANCH  40  53
ATOM     53  O   UNL d   1      22.983  19.403   5.344  0.00  0.00    -0.388 OA
ATOM     54  H   UNL d   1      22.389  18.721   5.721  0.00  0.00     0.210 HD
ENDBRANCH  40  53
BRANCH  41  55
ATOM     55  O   UNL d   1      23.799  21.330   3.666  0.00  0.00    -0.390 OA
ATOM     56  H   UNL d   1      24.101  20.411   3.815  0.00  0.00     0.210 HD
ENDBRANCH  41  55
ENDBRANCH  36  37
ENDBRANCH  35  36
ENDBRANCH  32  35
ENDBRANCH  31  32
ENDBRANCH   1  31
BRANCH   1  57
ATOM     57  O   UNL d   1      18.616  20.334   3.331  0.00  0.00    -0.307 OA
ATOM     58  H   UNL d   1      18.949  19.519   2.924  0.00  0.00     0.222 HD
ENDBRANCH   1  57
TORSDOF 20
ENDMDL
MODEL 4
REMARK VINA RESULT:      -8.8      1.146      1.798
REMARK  20 active torsions:
REMARK  status: ('A' for Active; 'I' for Inactive)
REMARK    1  A    between atoms: P_1  and  O_4 
REMARK    2  A    between atoms: P_1  and  O_23 
REMARK    3  A    between atoms: P_1  and  O_3 
REMARK    4  A    between atoms: O_4  and  C_5 
REMARK    5  A    between atoms: C_5  and  C_6 
REMARK    6  A    between atoms: C_8  and  O_9 
REMARK    7  A    between atoms: C_10  and  O_11 
REMARK    8  A    between atoms: O_11  and  P_45 
REMARK    9  A    between atoms: C_12  and  N_13 
REMARK   10  A    between atoms: C_17  and  N_18 
REMARK   11  A    between atoms: P_24  and  O_23 
REMARK   12  A    between atoms: P_24  and  O_27 
REMARK   13  A    between atoms: O_27  and  C_28 
REMARK   14  A    between atoms: C_28  and  C_29 
REMARK   15  A    between atoms: C_31  and  O_32 
REMARK   16  A    between atoms: C_33  and  O_34 
REMARK   17  A    between atoms: C_35  and  N_36 
REMARK   18  A    between atoms: C_38  and  C_39 
REMARK       I    between atoms: C_39  and  N_41 
REMARK   19  A    between atoms: P_45  and  O_47 
REMARK   20  A    between atoms: P_45  and  O_48 
ROOT
ATOM      1  P   UNL d   1      25.667  20.842  11.684  0.00  0.00     0.402 P 
ATOM      2  O   UNL d   1      27.014  20.669  12.431  0.00  0.00    -0.631 OA
ENDROOT
BRANCH   1   3
ATOM      3  O   UNL d   1      24.810  19.829  12.794  0.00  0.00    -0.294 OA
BRANCH   3   4
ATOM      4  C   UNL d   1      24.907  20.169  14.175  0.00  0.00     0.215 C 
BRANCH   4   5
ATOM      5  C   UNL d   1      23.603  20.650  14.796  0.00  0.00     0.180 C 
ATOM      6  O   UNL d   1      22.650  20.942  13.776  0.00  0.00    -0.353 OA
ATOM      7  C   UNL d   1      21.489  20.133  13.980  0.00  0.00     0.263 C 
ATOM      8  C   UNL d   1      21.769  19.083  15.067  0.00  0.00     0.214 C 
ATOM      9  C   UNL d   1      22.953  19.716  15.797  0.00  0.00     0.183 C 
BRANCH   7  10
ATOM     10  N   UNL d   1      21.039  19.635  12.695  0.00  0.00    -0.294 N 
ATOM     11  C   UNL d   1      21.627  18.678  11.906  0.00  0.00     0.214 A 
ATOM     12  N   UNL d   1      21.019  18.558  10.742  0.00  0.00    -0.236 NA
ATOM     13  C   UNL d   1      20.008  19.493  10.771  0.00  0.00     0.144 A 
ATOM     14  C   UNL d   1      19.027  19.864   9.837  0.00  0.00     0.135 A 
ATOM     15  C   UNL d   1      20.019  20.191  11.965  0.00  0.00     0.166 A 
ATOM     16  N   UNL d   1      18.207  20.899  10.138  0.00  0.00    -0.228 NA
ATOM     17  C   UNL d   1      18.348  21.497  11.343  0.00  0.00     0.237 A 
ATOM     18  N   UNL d   1      19.223  21.205  12.326  0.00  0.00    -0.222 NA
BRANCH  14  19
ATOM     19  N   UNL d   1      18.865  19.232   8.610  0.00  0.00    -0.285 NA
ATOM     20  H   UNL d   1      18.363  19.797   7.933  0.00  0.00     0.125 HD
ATOM     21  H   UNL d   1      18.609  18.260   8.708  0.00  0.00     0.125 HD
ENDBRANCH  14  19
ENDBRANCH   7  10
BRANCH   8  22
ATOM     22  O   UNL d   1      20.641  19.024  15.938  0.00  0.00    -0.284 OA
BRANCH  22  23
ATOM     23  P   UNL d   1      19.278  18.262  15.646  0.00  0.00     0.391 P 
ATOM     24  O   UNL d   1      18.215  19.089  15.003  0.00  0.00    -0.632 OA
BRANCH  23  25
ATOM     25  O   UNL d   1      19.560  16.931  14.823  0.00  0.00    -0.307 OA
ATOM     26  H   UNL d   1      19.086  16.185  15.237  0.00  0.00     0.222 HD
ENDBRANCH  23  25
BRANCH  23  27
ATOM     27  O   UNL d   1      18.746  17.713  17.048  0.00  0.00    -0.307 OA
ATOM     28  H   UNL d   1      17.853  17.339  16.939  0.00  0.00     0.222 HD
ENDBRANCH  23  27
ENDBRANCH  22  23
ENDBRANCH   8  22
BRANCH   9  29
ATOM     29  O   UNL d   1      22.496  20.527  16.909  0.00  0.00    -0.390 OA
ATOM     30  H   UNL d   1      21.867  19.987  17.421  0.00  0.00     0.210 HD
ENDBRANCH   9  29
ENDBRANCH   4   5
ENDBRANCH   3   4
ENDBRANCH   1   3
BRANCH   1  31
ATOM     31  O   UNL d   1      26.525  21.854  10.574  0.00  0.00    -0.188 OA
BRANCH  31  32
ATOM     32  P   UNL d   1      25.749  21.722   9.034  0.00  0.00     0.417 P 
ATOM     33  O   UNL d   1      25.488  23.179   8.607  0.00  0.00    -0.624 OA
ATOM     34  O   UNL d   1      27.133  21.637   8.344  0.00  0.00    -0.624 OA
BRANCH  32  35
ATOM     35  O   UNL d   1      24.204  21.819   9.806  0.00  0.00    -0.287 OA
BRANCH  35  36
ATOM     36  C   UNL d   1      23.225  22.292   8.861  0.00  0.00     0.216 C 
BRANCH  36  37
ATOM     37  C   UNL d   1      22.208  21.226   8.471  0.00  0.00     0.180 C 
ATOM     38  O   UNL d   1      21.222  21.813   7.586  0.00  0.00    -0.353 OA
ATOM     39  C   UNL d   1      21.295  21.084   6.353  0.00  0.00     0.259 C 
ATOM     40  C   UNL d   1      22.648  20.387   6.285  0.00  0.00     0.198 C 
ATOM     41  C   UNL d   1      22.800  20.015   7.745  0.00  0.00     0.182 C 
BRANCH  39  42
ATOM     42  N   UNL d   1      21.109  21.991   5.204  0.00  0.00    -0.336 N 
ATOM     43  C   UNL d   1      22.110  22.838   4.871  0.00  0.00     0.110 A 
ATOM     44  C   UNL d   1      22.002  23.673   3.763  0.00  0.00     0.047 A 
ATOM     45  C   UNL d   1      20.832  23.647   3.011  0.00  0.00     0.020 A 
ATOM     46  C   UNL d   1      19.799  22.787   3.384  0.00  0.00     0.018 A 
ATOM     47  C   UNL d   1      19.959  21.963   4.489  0.00  0.00     0.093 A 
BRANCH  44  48
ATOM     48  C   UNL d   1      23.173  24.530   3.461  0.00  0.00     0.250 C 
ATOM     49  O   UNL d   1      24.288  24.196   3.846  0.00  0.00    -0.268 OA
ATOM     50  N   UNL d   1      22.991  25.677   2.747  0.00  0.00    -0.366 N 
ATOM     51  H   UNL d   1      22.114  26.029   2.394  0.00  0.00     0.159 HD
ATOM     52  H   UNL d   1      23.814  26.244   2.571  0.00  0.00     0.159 HD
ENDBRANCH  44  48
ENDBRANCH  39  42
BRANCH  40  53
ATOM     53  O   UNL d   1      22.619  19.273   5.394  0.00  0.00    -0.388 OA
ATOM     54  H   UNL d   1      21.749  19.296   4.943  0.00  0.00     0.210 HD
ENDBRANCH  40  53
BRANCH  41  55
ATOM     55  O   UNL d   1      21.965  18.861   7.963  0.00  0.00    -0.390 OA
ATOM     56  H   UNL d   1      22.136  18.222   7.241  0.00  0.00     0.210 HD
ENDBRANCH  41  55
ENDBRANCH  36  37
ENDBRANCH  35  36
ENDBRANCH  32  35
ENDBRANCH  31  32
ENDBRANCH   1  31
BRANCH   1  57
ATOM     57  O   UNL d   1      25.755  19.593  10.608  0.00  0.00    -0.307 OA
ATOM     58  H   UNL d   1      25.543  18.802  11.129  0.00  0.00     0.222 HD
ENDBRANCH   1  57
TORSDOF 20
ENDMDL
MODEL 5
REMARK VINA RESULT:      -8.7      3.017      9.859
REMARK  20 active torsions:
REMARK  status: ('A' for Active; 'I' for Inactive)
REMARK    1  A    between atoms: P_1  and  O_4 
REMARK    2  A    between atoms: P_1  and  O_23 
REMARK    3  A    between atoms: P_1  and  O_3 
REMARK    4  A    between atoms: O_4  and  C_5 
REMARK    5  A    between atoms: C_5  and  C_6 
REMARK    6  A    between atoms: C_8  and  O_9 
REMARK    7  A    between atoms: C_10  and  O_11 
REMARK    8  A    between atoms: O_11  and  P_45 
REMARK    9  A    between atoms: C_12  and  N_13 
REMARK   10  A    between atoms: C_17  and  N_18 
REMARK   11  A    between atoms: P_24  and  O_23 
REMARK   12  A    between atoms: P_24  and  O_27 
REMARK   13  A    between atoms: O_27  and  C_28 
REMARK   14  A    between atoms: C_28  and  C_29 
REMARK   15  A    between atoms: C_31  and  O_32 
REMARK   16  A    between atoms: C_33  and  O_34 
REMARK   17  A    between atoms: C_35  and  N_36 
REMARK   18  A    between atoms: C_38  and  C_39 
REMARK       I    between atoms: C_39  and  N_41 
REMARK   19  A    between atoms: P_45  and  O_47 
REMARK   20  A    between atoms: P_45  and  O_48 
ROOT
ATOM      1  P   UNL d   1      19.058  20.451  10.945  0.00  0.00     0.402 P 
ATOM      2  O   UNL d   1      18.009  19.942   9.925  0.00  0.00    -0.631 OA
ENDROOT
BRANCH   1   3
ATOM      3  O   UNL d   1      20.118  21.037   9.709  0.00  0.00    -0.294 OA
BRANCH   3   4
ATOM      4  C   UNL d   1      20.161  20.289   8.497  0.00  0.00     0.215 C 
BRANCH   4   5
ATOM      5  C   UNL d   1      21.548  19.792   8.115  0.00  0.00     0.180 C 
ATOM      6  O   UNL d   1      21.914  20.294   6.831  0.00  0.00    -0.353 OA
ATOM      7  C   UNL d   1      23.121  21.051   6.955  0.00  0.00     0.263 C 
ATOM      8  C   UNL d   1      23.461  21.251   8.440  0.00  0.00     0.214 C 
ATOM      9  C   UNL d   1      22.666  20.116   9.086  0.00  0.00     0.183 C 
BRANCH   7  10
ATOM     10  N   UNL d   1      23.002  22.249   6.148  0.00  0.00    -0.294 N 
ATOM     11  C   UNL d   1      21.915  23.076   6.016  0.00  0.00     0.214 A 
ATOM     12  N   UNL d   1      22.111  24.006   5.102  0.00  0.00    -0.236 NA
ATOM     13  C   UNL d   1      23.372  23.756   4.606  0.00  0.00     0.144 A 
ATOM     14  C   UNL d   1      24.145  24.379   3.613  0.00  0.00     0.135 A 
ATOM     15  C   UNL d   1      23.932  22.653   5.225  0.00  0.00     0.166 A 
ATOM     16  N   UNL d   1      25.343  23.836   3.292  0.00  0.00    -0.228 NA
ATOM     17  C   UNL d   1      25.753  22.743   3.975  0.00  0.00     0.237 A 
ATOM     18  N   UNL d   1      25.118  22.086   4.965  0.00  0.00    -0.222 NA
BRANCH  14  19
ATOM     19  N   UNL d   1      23.735  25.518   2.930  0.00  0.00    -0.285 NA
ATOM     20  H   UNL d   1      24.501  26.019   2.493  0.00  0.00     0.125 HD
ATOM     21  H   UNL d   1      23.045  26.048   3.444  0.00  0.00     0.125 HD
ENDBRANCH  14  19
ENDBRANCH   7  10
BRANCH   8  22
ATOM     22  O   UNL d   1      24.858  21.023   8.618  0.00  0.00    -0.284 OA
BRANCH  22  23
ATOM     23  P   UNL d   1      25.960  22.140   8.869  0.00  0.00     0.391 P 
ATOM     24  O   UNL d   1      26.729  21.998  10.139  0.00  0.00    -0.632 OA
BRANCH  23  25
ATOM     25  O   UNL d   1      26.926  22.246   7.610  0.00  0.00    -0.307 OA
ATOM     26  H   UNL d   1      27.313  21.369   7.422  0.00  0.00     0.222 HD
ENDBRANCH  23  25
BRANCH  23  27
ATOM     27  O   UNL d   1      25.202  23.545   8.861  0.00  0.00    -0.307 OA
ATOM     28  H   UNL d   1      25.647  24.164   9.469  0.00  0.00     0.222 HD
ENDBRANCH  23  27
ENDBRANCH  22  23
ENDBRANCH   8  22
BRANCH   9  29
ATOM     29  O   UNL d   1      23.484  18.925   9.213  0.00  0.00    -0.390 OA
ATOM     30  H   UNL d   1      24.409  19.217   9.305  0.00  0.00     0.210 HD
ENDBRANCH   9  29
ENDBRANCH   4   5
ENDBRANCH   3   4
ENDBRANCH   1   3
BRANCH   1  31
ATOM     31  O   UNL d   1      17.998  19.865  12.180  0.00  0.00    -0.188 OA
BRANCH  31  32
ATOM     32  P   UNL d   1      18.964  19.044  13.356  0.00  0.00     0.417 P 
ATOM     33  O   UNL d   1      18.215  19.251  14.686  0.00  0.00    -0.624 OA
ATOM     34  O   UNL d   1      18.248  17.714  13.017  0.00  0.00    -0.624 OA
BRANCH  32  35
ATOM     35  O   UNL d   1      19.764  20.531  13.736  0.00  0.00    -0.287 OA
BRANCH  35  36
ATOM     36  C   UNL d   1      21.068  20.249  14.278  0.00  0.00     0.216 C 
BRANCH  36  37
ATOM     37  C   UNL d   1      22.132  21.238  13.818  0.00  0.00     0.180 C 
ATOM     38  O   UNL d   1      23.264  21.170  14.719  0.00  0.00    -0.353 OA
ATOM     39  C   UNL d   1      24.395  20.782  13.926  0.00  0.00     0.259 C 
ATOM     40  C   UNL d   1      23.884  20.123  12.650  0.00  0.00     0.198 C 
ATOM     41  C   UNL d   1      22.666  20.989  12.405  0.00  0.00     0.182 C 
BRANCH  39  42
ATOM     42  N   UNL d   1      25.266  19.862  14.682  0.00  0.00    -0.336 N 
ATOM     43  C   UNL d   1      25.010  19.647  15.994  0.00  0.00     0.110 A 
ATOM     44  C   UNL d   1      25.772  18.747  16.733  0.00  0.00     0.047 A 
ATOM     45  C   UNL d   1      26.826  18.086  16.112  0.00  0.00     0.020 A 
ATOM     46  C   UNL d   1      27.093  18.340  14.767  0.00  0.00     0.018 A 
ATOM     47  C   UNL d   1      26.297  19.235  14.067  0.00  0.00     0.093 A 
BRANCH  44  48
ATOM     48  C   UNL d   1      25.379  18.554  18.149  0.00  0.00     0.250 C 
ATOM     49  O   UNL d   1      26.170  18.048  18.937  0.00  0.00    -0.268 OA
ATOM     50  N   UNL d   1      24.142  18.956  18.557  0.00  0.00    -0.366 N 
ATOM     51  H   UNL d   1      23.430  19.378  17.980  0.00  0.00     0.159 HD
ATOM     52  H   UNL d   1      23.905  18.797  19.530  0.00  0.00     0.159 HD
ENDBRANCH  44  48
ENDBRANCH  39  42
BRANCH  40  53
ATOM     53  O   UNL d   1      24.859  20.172  11.610  0.00  0.00    -0.388 OA
ATOM     54  H   UNL d   1      25.001  21.119  11.402  0.00  0.00     0.210 HD
ENDBRANCH  40  53
BRANCH  41  55
ATOM     55  O   UNL d   1      23.147  22.225  11.841  0.00  0.00    -0.390 OA
ATOM     56  H   UNL d   1      23.771  22.006  11.119  0.00  0.00     0.210 HD
ENDBRANCH  41  55
ENDBRANCH  36  37
ENDBRANCH  35  36
ENDBRANCH  32  35
ENDBRANCH  31  32
ENDBRANCH   1  31
BRANCH   1  57
ATOM     57  O   UNL d   1      19.996  19.103  11.114  0.00  0.00    -0.307 OA
ATOM     58  H   UNL d   1      19.595  18.613  11.849  0.00  0.00     0.222 HD
ENDBRANCH   1  57
TORSDOF 20
ENDMDL
MODEL 6
REMARK VINA RESULT:      -8.7      2.986      8.972
REMARK  20 active torsions:
REMARK  status: ('A' for Active; 'I' for Inactive)
REMARK    1  A    between atoms: P_1  and  O_4 
REMARK    2  A    between atoms: P_1  and  O_23 
REMARK    3  A    between atoms: P_1  and  O_3 
REMARK    4  A    between atoms: O_4  and  C_5 
REMARK    5  A    between atoms: C_5  and  C_6 
REMARK    6  A    between atoms: C_8  and  O_9 
REMARK    7  A    between atoms: C_10  and  O_11 
REMARK    8  A    between atoms: O_11  and  P_45 
REMARK    9  A    between atoms: C_12  and  N_13 
REMARK   10  A    between atoms: C_17  and  N_18 
REMARK   11  A    between atoms: P_24  and  O_23 
REMARK   12  A    between atoms: P_24  and  O_27 
REMARK   13  A    between atoms: O_27  and  C_28 
REMARK   14  A    between atoms: C_28  and  C_29 
REMARK   15  A    between atoms: C_31  and  O_32 
REMARK   16  A    between atoms: C_33  and  O_34 
REMARK   17  A    between atoms: C_35  and  N_36 
REMARK   18  A    between atoms: C_38  and  C_39 
REMARK       I    between atoms: C_39  and  N_41 
REMARK   19  A    between atoms: P_45  and  O_47 
REMARK   20  A    between atoms: P_45  and  O_48 
ROOT
ATOM      1  P   UNL d   1      18.967  19.762  10.889  0.00  0.00     0.402 P 
ATOM      2  O   UNL d   1      17.837  20.287   9.968  0.00  0.00    -0.631 OA
ENDROOT
BRANCH   1   3
ATOM      3  O   UNL d   1      20.219  20.312   9.830  0.00  0.00    -0.294 OA
BRANCH   3   4
ATOM      4  C   UNL d   1      20.340  19.638   8.579  0.00  0.00     0.215 C 
BRANCH   4   5
ATOM      5  C   UNL d   1      21.771  19.313   8.177  0.00  0.00     0.180 C 
ATOM      6  O   UNL d   1      22.086  19.936   6.933  0.00  0.00    -0.353 OA
ATOM      7  C   UNL d   1      23.209  20.802   7.118  0.00  0.00     0.263 C 
ATOM      8  C   UNL d   1      23.523  20.934   8.617  0.00  0.00     0.214 C 
ATOM      9  C   UNL d   1      22.848  19.683   9.177  0.00  0.00     0.183 C 
BRANCH   7  10
ATOM     10  N   UNL d   1      22.970  22.034   6.394  0.00  0.00    -0.294 N 
ATOM     11  C   UNL d   1      21.836  22.808   6.391  0.00  0.00     0.214 A 
ATOM     12  N   UNL d   1      21.915  23.795   5.520  0.00  0.00    -0.236 NA
ATOM     13  C   UNL d   1      23.144  23.639   4.917  0.00  0.00     0.144 A 
ATOM     14  C   UNL d   1      23.806  24.354   3.906  0.00  0.00     0.135 A 
ATOM     15  C   UNL d   1      23.804  22.536   5.427  0.00  0.00     0.166 A 
ATOM     16  N   UNL d   1      25.000  23.893   3.465  0.00  0.00    -0.228 NA
ATOM     17  C   UNL d   1      25.515  22.789   4.050  0.00  0.00     0.237 A 
ATOM     18  N   UNL d   1      24.991  22.046   5.046  0.00  0.00    -0.222 NA
BRANCH  14  19
ATOM     19  N   UNL d   1      23.289  25.505   3.323  0.00  0.00    -0.285 NA
ATOM     20  H   UNL d   1      22.518  25.907   3.847  0.00  0.00     0.125 HD
ATOM     21  H   UNL d   1      23.196  25.421   2.320  0.00  0.00     0.125 HD
ENDBRANCH  14  19
ENDBRANCH   7  10
BRANCH   8  22
ATOM     22  O   UNL d   1      24.936  20.838   8.792  0.00  0.00    -0.284 OA
BRANCH  22  23
ATOM     23  P   UNL d   1      25.922  22.048   9.090  0.00  0.00     0.391 P 
ATOM     24  O   UNL d   1      26.817  21.861  10.269  0.00  0.00    -0.632 OA
BRANCH  23  25
ATOM     25  O   UNL d   1      26.749  22.414   7.782  0.00  0.00    -0.307 OA
ATOM     26  H   UNL d   1      26.312  22.024   7.000  0.00  0.00     0.222 HD
ENDBRANCH  23  25
BRANCH  23  27
ATOM     27  O   UNL d   1      25.012  23.341   9.315  0.00  0.00    -0.307 OA
ATOM     28  H   UNL d   1      25.513  24.016   9.807  0.00  0.00     0.222 HD
ENDBRANCH  23  27
ENDBRANCH  22  23
ENDBRANCH   8  22
BRANCH   9  29
ATOM     29  O   UNL d   1      23.784  18.575   9.231  0.00  0.00    -0.390 OA
ATOM     30  H   UNL d   1      23.389  17.891   9.802  0.00  0.00     0.210 HD
ENDBRANCH   9  29
ENDBRANCH   4   5
ENDBRANCH   3   4
ENDBRANCH   1   3
BRANCH   1  31
ATOM     31  O   UNL d   1      17.714  19.211  11.947  0.00  0.00    -0.188 OA
BRANCH  31  32
ATOM     32  P   UNL d   1      18.469  18.445  13.302  0.00  0.00     0.417 P 
ATOM     33  O   UNL d   1      18.273  19.435  14.465  0.00  0.00    -0.624 OA
ATOM     34  O   UNL d   1      17.164  17.661  13.586  0.00  0.00    -0.624 OA
BRANCH  32  35
ATOM     35  O   UNL d   1      19.926  19.322  12.985  0.00  0.00    -0.287 OA
BRANCH  35  36
ATOM     36  C   UNL d   1      20.673  19.468  14.208  0.00  0.00     0.216 C 
BRANCH  36  37
ATOM     37  C   UNL d   1      21.271  20.860  14.379  0.00  0.00     0.180 C 
ATOM     38  O   UNL d   1      22.636  20.735  14.844  0.00  0.00    -0.353 OA
ATOM     39  C   UNL d   1      23.465  21.352  13.850  0.00  0.00     0.259 C 
ATOM     40  C   UNL d   1      22.685  21.412  12.542  0.00  0.00     0.198 C 
ATOM     41  C   UNL d   1      21.306  21.700  13.100  0.00  0.00     0.182 C 
BRANCH  39  42
ATOM     42  N   UNL d   1      24.721  20.597  13.681  0.00  0.00    -0.336 N 
ATOM     43  C   UNL d   1      24.844  19.759  12.625  0.00  0.00     0.110 A 
ATOM     44  C   UNL d   1      26.029  19.067  12.396  0.00  0.00     0.047 A 
ATOM     45  C   UNL d   1      27.086  19.225  13.286  0.00  0.00     0.020 A 
ATOM     46  C   UNL d   1      26.933  20.072  14.383  0.00  0.00     0.018 A 
ATOM     47  C   UNL d   1      25.737  20.752  14.564  0.00  0.00     0.093 A 
BRANCH  44  48
ATOM     48  C   UNL d   1      26.073  18.209  11.187  0.00  0.00     0.250 C 
ATOM     49  O   UNL d   1      25.546  17.102  11.206  0.00  0.00    -0.268 OA
ATOM     50  N   UNL d   1      26.691  18.673  10.065  0.00  0.00    -0.366 N 
ATOM     51  H   UNL d   1      27.150  19.566   9.960  0.00  0.00     0.159 HD
ATOM     52  H   UNL d   1      26.711  18.054   9.262  0.00  0.00     0.159 HD
ENDBRANCH  44  48
ENDBRANCH  39  42
BRANCH  40  53
ATOM     53  O   UNL d   1      23.192  22.425  11.676  0.00  0.00    -0.388 OA
ATOM     54  H   UNL d   1      22.583  23.189  11.750  0.00  0.00     0.210 HD
ENDBRANCH  40  53
BRANCH  41  55
ATOM     55  O   UNL d   1      21.285  23.101  13.436  0.00  0.00    -0.390 OA
ATOM     56  H   UNL d   1      21.118  23.180  14.398  0.00  0.00     0.210 HD
ENDBRANCH  41  55
ENDBRANCH  36  37
ENDBRANCH  35  36
ENDBRANCH  32  35
ENDBRANCH  31  32
ENDBRANCH   1  31
BRANCH   1  57
ATOM     57  O   UNL d   1      19.144  18.228  10.307  0.00  0.00    -0.307 OA
ATOM     58  H   UNL d   1      18.834  18.274   9.388  0.00  0.00     0.222 HD
ENDBRANCH   1  57
TORSDOF 20
ENDMDL
MODEL 7
REMARK VINA RESULT:      -8.6      8.242     13.726
REMARK  20 active torsions:
REMARK  status: ('A' for Active; 'I' for Inactive)
REMARK    1  A    between atoms: P_1  and  O_4 
REMARK    2  A    between atoms: P_1  and  O_23 
REMARK    3  A    between atoms: P_1  and  O_3 
REMARK    4  A    between atoms: O_4  and  C_5 
REMARK    5  A    between atoms: C_5  and  C_6 
REMARK    6  A    between atoms: C_8  and  O_9 
REMARK    7  A    between atoms: C_10  and  O_11 
REMARK    8  A    between atoms: O_11  and  P_45 
REMARK    9  A    between atoms: C_12  and  N_13 
REMARK   10  A    between atoms: C_17  and  N_18 
REMARK   11  A    between atoms: P_24  and  O_23 
REMARK   12  A    between atoms: P_24  and  O_27 
REMARK   13  A    between atoms: O_27  and  C_28 
REMARK   14  A    between atoms: C_28  and  C_29 
REMARK   15  A    between atoms: C_31  and  O_32 
REMARK   16  A    between atoms: C_33  and  O_34 
REMARK   17  A    between atoms: C_35  and  N_36 
REMARK   18  A    between atoms: C_38  and  C_39 
REMARK       I    between atoms: C_39  and  N_41 
REMARK   19  A    between atoms: P_45  and  O_47 
REMARK   20  A    between atoms: P_45  and  O_48 
ROOT
ATOM      1  P   UNL d   1      17.804  20.996   2.145  0.00  0.00     0.402 P 
ATOM      2  O   UNL d   1      16.325  20.767   2.549  0.00  0.00    -0.631 OA
ENDROOT
BRANCH   1   3
ATOM      3  O   UNL d   1      17.798  19.688   1.013  0.00  0.00    -0.294 OA
BRANCH   3   4
ATOM      4  C   UNL d   1      17.795  20.039  -0.369  0.00  0.00     0.215 C 
BRANCH   4   5
ATOM      5  C   UNL d   1      17.839  18.850  -1.319  0.00  0.00     0.180 C 
ATOM      6  O   UNL d   1      16.623  18.110  -1.238  0.00  0.00    -0.353 OA
ATOM      7  C   UNL d   1      16.017  18.070  -2.533  0.00  0.00     0.263 C 
ATOM      8  C   UNL d   1      16.757  19.023  -3.485  0.00  0.00     0.214 C 
ATOM      9  C   UNL d   1      18.103  19.169  -2.777  0.00  0.00     0.183 C 
BRANCH   7  10
ATOM     10  N   UNL d   1      14.590  18.278  -2.385  0.00  0.00    -0.294 N 
ATOM     11  C   UNL d   1      13.929  18.916  -1.365  0.00  0.00     0.214 A 
ATOM     12  N   UNL d   1      12.620  18.812  -1.486  0.00  0.00    -0.236 NA
ATOM     13  C   UNL d   1      12.426  18.056  -2.621  0.00  0.00     0.144 A 
ATOM     14  C   UNL d   1      11.271  17.589  -3.268  0.00  0.00     0.135 A 
ATOM     15  C   UNL d   1      13.638  17.691  -3.180  0.00  0.00     0.166 A 
ATOM     16  N   UNL d   1      11.416  16.782  -4.346  0.00  0.00    -0.228 NA
ATOM     17  C   UNL d   1      12.669  16.499  -4.768  0.00  0.00     0.237 A 
ATOM     18  N   UNL d   1      13.842  16.916  -4.253  0.00  0.00    -0.222 NA
BRANCH  14  19
ATOM     19  N   UNL d   1       9.983  17.903  -2.849  0.00  0.00    -0.285 NA
ATOM     20  H   UNL d   1       9.614  18.740  -3.287  0.00  0.00     0.125 HD
ATOM     21  H   UNL d   1       9.863  17.788  -1.852  0.00  0.00     0.125 HD
ENDBRANCH  14  19
ENDBRANCH   7  10
BRANCH   8  22
ATOM     22  O   UNL d   1      16.939  18.361  -4.735  0.00  0.00    -0.284 OA
BRANCH  22  23
ATOM     23  P   UNL d   1      17.015  19.063  -6.159  0.00  0.00     0.391 P 
ATOM     24  O   UNL d   1      15.738  19.073  -6.929  0.00  0.00    -0.632 OA
BRANCH  23  25
ATOM     25  O   UNL d   1      17.622  20.526  -6.015  0.00  0.00    -0.307 OA
ATOM     26  H   UNL d   1      18.453  20.484  -5.504  0.00  0.00     0.222 HD
ENDBRANCH  23  25
BRANCH  23  27
ATOM     27  O   UNL d   1      18.133  18.289  -6.996  0.00  0.00    -0.307 OA
ATOM     28  H   UNL d   1      17.784  18.056  -7.876  0.00  0.00     0.222 HD
ENDBRANCH  23  27
ENDBRANCH  22  23
ENDBRANCH   8  22
BRANCH   9  29
ATOM     29  O   UNL d   1      19.050  18.185  -3.267  0.00  0.00    -0.390 OA
ATOM     30  H   UNL d   1      18.611  17.316  -3.227  0.00  0.00     0.210 HD
ENDBRANCH   9  29
ENDBRANCH   4   5
ENDBRANCH   3   4
ENDBRANCH   1   3
BRANCH   1  31
ATOM     31  O   UNL d   1      17.808  22.304   3.277  0.00  0.00    -0.188 OA
BRANCH  31  32
ATOM     32  P   UNL d   1      18.667  23.621   2.557  0.00  0.00     0.417 P 
ATOM     33  O   UNL d   1      18.652  23.313   1.048  0.00  0.00    -0.624 OA
ATOM     34  O   UNL d   1      17.363  24.455   2.527  0.00  0.00    -0.624 OA
BRANCH  32  35
ATOM     35  O   UNL d   1      20.124  22.688   2.590  0.00  0.00    -0.287 OA
BRANCH  35  36
ATOM     36  C   UNL d   1      21.260  23.570   2.516  0.00  0.00     0.216 C 
BRANCH  36  37
ATOM     37  C   UNL d   1      22.088  23.586   3.795  0.00  0.00     0.180 C 
ATOM     38  O   UNL d   1      22.618  22.260   4.033  0.00  0.00    -0.353 OA
ATOM     39  C   UNL d   1      24.047  22.385   4.033  0.00  0.00     0.259 C 
ATOM     40  C   UNL d   1      24.417  23.670   3.302  0.00  0.00     0.198 C 
ATOM     41  C   UNL d   1      23.278  24.549   3.772  0.00  0.00     0.182 C 
BRANCH  39  42
ATOM     42  N   UNL d   1      24.669  21.213   3.387  0.00  0.00    -0.336 N 
ATOM     43  C   UNL d   1      24.630  21.110   2.039  0.00  0.00     0.110 A 
ATOM     44  C   UNL d   1      25.250  20.051   1.384  0.00  0.00     0.047 A 
ATOM     45  C   UNL d   1      25.892  19.074   2.138  0.00  0.00     0.020 A 
ATOM     46  C   UNL d   1      25.900  19.181   3.528  0.00  0.00     0.018 A 
ATOM     47  C   UNL d   1      25.280  20.263   4.136  0.00  0.00     0.093 A 
BRANCH  44  48
ATOM     48  C   UNL d   1      25.184  20.057  -0.097  0.00  0.00     0.250 C 
ATOM     49  O   UNL d   1      25.527  21.057  -0.718  0.00  0.00    -0.268 OA
ATOM     50  N   UNL d   1      24.751  18.941  -0.749  0.00  0.00    -0.366 N 
ATOM     51  H   UNL d   1      24.449  18.078  -0.321  0.00  0.00     0.159 HD
ATOM     52  H   UNL d   1      24.708  18.987  -1.761  0.00  0.00     0.159 HD
ENDBRANCH  44  48
ENDBRANCH  39  42
BRANCH  40  53
ATOM     53  O   UNL d   1      25.712  24.133   3.680  0.00  0.00    -0.388 OA
ATOM     54  H   UNL d   1      25.695  24.253   4.653  0.00  0.00     0.210 HD
ENDBRANCH  40  53
BRANCH  41  55
ATOM     55  O   UNL d   1      23.601  24.956   5.116  0.00  0.00    -0.390 OA
ATOM     56  H   UNL d   1      24.059  25.820   5.070  0.00  0.00     0.210 HD
ENDBRANCH  41  55
ENDBRANCH  36  37
ENDBRANCH  35  36
ENDBRANCH  32  35
ENDBRANCH  31  32
ENDBRANCH   1  31
BRANCH   1  57
ATOM     57  O   UNL d   1      18.572  20.041   3.250  0.00  0.00    -0.307 OA
ATOM     58  H   UNL d   1      18.354  20.432   4.110  0.00  0.00     0.222 HD
ENDBRANCH   1  57
TORSDOF 20
ENDMDL
MODEL 8
REMARK VINA RESULT:      -8.6      3.886      7.727
REMARK  20 active torsions:
REMARK  status: ('A' for Active; 'I' for Inactive)
REMARK    1  A    between atoms: P_1  and  O_4 
REMARK    2  A    between atoms: P_1  and  O_23 
REMARK    3  A    between atoms: P_1  and  O_3 
REMARK    4  A    between atoms: O_4  and  C_5 
REMARK    5  A    between atoms: C_5  and  C_6 
REMARK    6  A    between atoms: C_8  and  O_9 
REMARK    7  A    between atoms: C_10  and  O_11 
REMARK    8  A    between atoms: O_11  and  P_45 
REMARK    9  A    between atoms: C_12  and  N_13 
REMARK   10  A    between atoms: C_17  and  N_18 
REMARK   11  A    between atoms: P_24  and  O_23 
REMARK   12  A    between atoms: P_24  and  O_27 
REMARK   13  A    between atoms: O_27  and  C_28 
REMARK   14  A    between atoms: C_28  and  C_29 
REMARK   15  A    between atoms: C_31  and  O_32 
REMARK   16  A    between atoms: C_33  and  O_34 
REMARK   17  A    between atoms: C_35  and  N_36 
REMARK   18  A    between atoms: C_38  and  C_39 
REMARK       I    between atoms: C_39  and  N_41 
REMARK   19  A    between atoms: P_45  and  O_47 
REMARK   20  A    between atoms: P_45  and  O_48 
ROOT
ATOM      1  P   UNL d   1      23.824  20.881   9.390  0.00  0.00     0.402 P 
ATOM      2  O   UNL d   1      25.020  21.134   8.438  0.00  0.00    -0.631 OA
ENDROOT
BRANCH   1   3
ATOM      3  O   UNL d   1      24.848  20.533  10.740  0.00  0.00    -0.294 OA
BRANCH   3   4
ATOM      4  C   UNL d   1      24.315  20.808  12.034  0.00  0.00     0.215 C 
BRANCH   4   5
ATOM      5  C   UNL d   1      24.087  19.574  12.895  0.00  0.00     0.180 C 
ATOM      6  O   UNL d   1      25.337  19.011  13.289  0.00  0.00    -0.353 OA
ATOM      7  C   UNL d   1      25.403  18.981  14.717  0.00  0.00     0.263 C 
ATOM      8  C   UNL d   1      24.225  19.771  15.310  0.00  0.00     0.214 C 
ATOM      9  C   UNL d   1      23.244  19.772  14.139  0.00  0.00     0.183 C 
BRANCH   7  10
ATOM     10  N   UNL d   1      26.731  19.388  15.129  0.00  0.00    -0.294 N 
ATOM     11  C   UNL d   1      27.546  20.329  14.550  0.00  0.00     0.214 A 
ATOM     12  N   UNL d   1      28.741  20.357  15.108  0.00  0.00    -0.236 NA
ATOM     13  C   UNL d   1      28.704  19.377  16.076  0.00  0.00     0.144 A 
ATOM     14  C   UNL d   1      29.657  18.910  16.995  0.00  0.00     0.135 A 
ATOM     15  C   UNL d   1      27.473  18.746  16.088  0.00  0.00     0.166 A 
ATOM     16  N   UNL d   1      29.335  17.854  17.780  0.00  0.00    -0.228 NA
ATOM     17  C   UNL d   1      28.095  17.329  17.667  0.00  0.00     0.237 A 
ATOM     18  N   UNL d   1      27.092  17.714  16.853  0.00  0.00    -0.222 NA
BRANCH  14  19
ATOM     19  N   UNL d   1      30.924  19.467  17.128  0.00  0.00    -0.285 NA
ATOM     20  H   UNL d   1      30.947  20.257  17.765  0.00  0.00     0.125 HD
ATOM     21  H   UNL d   1      31.405  19.548  16.244  0.00  0.00     0.125 HD
ENDBRANCH  14  19
ENDBRANCH   7  10
BRANCH   8  22
ATOM     22  O   UNL d   1      23.680  19.022  16.395  0.00  0.00    -0.284 OA
BRANCH  22  23
ATOM     23  P   UNL d   1      23.727  19.435  17.929  0.00  0.00     0.391 P 
ATOM     24  O   UNL d   1      25.094  19.641  18.488  0.00  0.00    -0.632 OA
BRANCH  23  25
ATOM     25  O   UNL d   1      22.795  20.698  18.183  0.00  0.00    -0.307 OA
ATOM     26  H   UNL d   1      23.334  21.512  18.146  0.00  0.00     0.222 HD
ENDBRANCH  23  25
BRANCH  23  27
ATOM     27  O   UNL d   1      22.991  18.274  18.742  0.00  0.00    -0.307 OA
ATOM     28  H   UNL d   1      22.138  18.065  18.319  0.00  0.00     0.222 HD
ENDBRANCH  23  27
ENDBRANCH  22  23
ENDBRANCH   8  22
BRANCH   9  29
ATOM     29  O   UNL d   1      22.337  18.643  14.228  0.00  0.00    -0.390 OA
ATOM     30  H   UNL d   1      21.962  18.502  13.340  0.00  0.00     0.210 HD
ENDBRANCH   9  29
ENDBRANCH   4   5
ENDBRANCH   3   4
ENDBRANCH   1   3
BRANCH   1  31
ATOM     31  O   UNL d   1      22.801  21.229   8.039  0.00  0.00    -0.188 OA
BRANCH  31  32
ATOM     32  P   UNL d   1      21.469  20.127   8.091  0.00  0.00     0.417 P 
ATOM     33  O   UNL d   1      20.313  20.884   7.411  0.00  0.00    -0.624 OA
ATOM     34  O   UNL d   1      21.968  19.463   6.784  0.00  0.00    -0.624 OA
BRANCH  32  35
ATOM     35  O   UNL d   1      20.911  20.869   9.551  0.00  0.00    -0.287 OA
BRANCH  35  36
ATOM     36  C   UNL d   1      19.630  21.483   9.317  0.00  0.00     0.216 C 
BRANCH  36  37
ATOM     37  C   UNL d   1      18.623  21.206  10.428  0.00  0.00     0.180 C 
ATOM     38  O   UNL d   1      18.313  19.792  10.443  0.00  0.00    -0.353 OA
ATOM     39  C   UNL d   1      18.697  19.303  11.736  0.00  0.00     0.259 C 
ATOM     40  C   UNL d   1      19.699  20.278  12.341  0.00  0.00     0.198 C 
ATOM     41  C   UNL d   1      19.107  21.576  11.832  0.00  0.00     0.182 C 
BRANCH  39  42
ATOM     42  N   UNL d   1      19.276  17.950  11.627  0.00  0.00    -0.336 N 
ATOM     43  C   UNL d   1      20.598  17.823  11.363  0.00  0.00     0.110 A 
ATOM     44  C   UNL d   1      21.198  16.570  11.305  0.00  0.00     0.047 A 
ATOM     45  C   UNL d   1      20.414  15.437  11.494  0.00  0.00     0.020 A 
ATOM     46  C   UNL d   1      19.049  15.584  11.738  0.00  0.00     0.018 A 
ATOM     47  C   UNL d   1      18.497  16.856  11.801  0.00  0.00     0.093 A 
BRANCH  44  48
ATOM     48  C   UNL d   1      22.659  16.546  11.053  0.00  0.00     0.250 C 
ATOM     49  O   UNL d   1      23.080  16.595   9.902  0.00  0.00    -0.268 OA
ATOM     50  N   UNL d   1      23.515  16.479  12.111  0.00  0.00    -0.366 N 
ATOM     51  H   UNL d   1      23.259  16.434  13.086  0.00  0.00     0.159 HD
ATOM     52  H   UNL d   1      24.506  16.453  11.899  0.00  0.00     0.159 HD
ENDBRANCH  44  48
ENDBRANCH  39  42
BRANCH  40  53
ATOM     53  O   UNL d   1      19.743  20.169  13.762  0.00  0.00    -0.388 OA
ATOM     54  H   UNL d   1      18.845  19.906  14.052  0.00  0.00     0.210 HD
ENDBRANCH  40  53
BRANCH  41  55
ATOM     55  O   UNL d   1      17.975  21.868  12.675  0.00  0.00    -0.390 OA
ATOM     56  H   UNL d   1      18.270  21.821  13.608  0.00  0.00     0.210 HD
ENDBRANCH  41  55
ENDBRANCH  36  37
ENDBRANCH  35  36
ENDBRANCH  32  35
ENDBRANCH  31  32
ENDBRANCH   1  31
BRANCH   1  57
ATOM     57  O   UNL d   1      23.583  19.266   9.153  0.00  0.00    -0.307 OA
ATOM     58  H   UNL d   1      22.855  19.033   9.750  0.00  0.00     0.222 HD
ENDBRANCH   1  57
TORSDOF 20
ENDMDL
MODEL 9
REMARK VINA RESULT:      -8.6      3.098      6.026
REMARK  20 active torsions:
REMARK  status: ('A' for Active; 'I' for Inactive)
REMARK    1  A    between atoms: P_1  and  O_4 
REMARK    2  A    between atoms: P_1  and  O_23 
REMARK    3  A    between atoms: P_1  and  O_3 
REMARK    4  A    between atoms: O_4  and  C_5 
REMARK    5  A    between atoms: C_5  and  C_6 
REMARK    6  A    between atoms: C_8  and  O_9 
REMARK    7  A    between atoms: C_10  and  O_11 
REMARK    8  A    between atoms: O_11  and  P_45 
REMARK    9  A    between atoms: C_12  and  N_13 
REMARK   10  A    between atoms: C_17  and  N_18 
REMARK   11  A    between atoms: P_24  and  O_23 
REMARK   12  A    between atoms: P_24  and  O_27 
REMARK   13  A    between atoms: O_27  and  C_28 
REMARK   14  A    between atoms: C_28  and  C_29 
REMARK   15  A    between atoms: C_31  and  O_32 
REMARK   16  A    between atoms: C_33  and  O_34 
REMARK   17  A    between atoms: C_35  and  N_36 
REMARK   18  A    between atoms: C_38  and  C_39 
REMARK       I    between atoms: C_39  and  N_41 
REMARK   19  A    between atoms: P_45  and  O_47 
REMARK   20  A    between atoms: P_45  and  O_48 
ROOT
ATOM      1  P   UNL d   1      18.567  20.971  12.111  0.00  0.00     0.402 P 
ATOM      2  O   UNL d   1      17.407  21.993  12.218  0.00  0.00    -0.631 OA
ENDROOT
BRANCH   1   3
ATOM      3  O   UNL d   1      17.955  19.996  13.402  0.00  0.00    -0.294 OA
BRANCH   3   4
ATOM      4  C   UNL d   1      17.977  18.585  13.202  0.00  0.00     0.215 C 
BRANCH   4   5
ATOM      5  C   UNL d   1      18.843  17.823  14.195  0.00  0.00     0.180 C 
ATOM      6  O   UNL d   1      19.787  17.009  13.502  0.00  0.00    -0.353 OA
ATOM      7  C   UNL d   1      21.107  17.386  13.901  0.00  0.00     0.263 C 
ATOM      8  C   UNL d   1      21.050  18.673  14.740  0.00  0.00     0.214 C 
ATOM      9  C   UNL d   1      19.595  18.662  15.209  0.00  0.00     0.183 C 
BRANCH   7  10
ATOM     10  N   UNL d   1      21.956  17.414  12.727  0.00  0.00    -0.294 N 
ATOM     11  C   UNL d   1      21.582  17.558  11.414  0.00  0.00     0.214 A 
ATOM     12  N   UNL d   1      22.603  17.411  10.592  0.00  0.00    -0.236 NA
ATOM     13  C   UNL d   1      23.679  17.139  11.407  0.00  0.00     0.144 A 
ATOM     14  C   UNL d   1      25.032  16.874  11.140  0.00  0.00     0.135 A 
ATOM     15  C   UNL d   1      23.294  17.110  12.735  0.00  0.00     0.166 A 
ATOM     16  N   UNL d   1      25.845  16.558  12.176  0.00  0.00    -0.228 NA
ATOM     17  C   UNL d   1      25.320  16.555  13.422  0.00  0.00     0.237 A 
ATOM     18  N   UNL d   1      24.056  16.826  13.800  0.00  0.00    -0.222 NA
BRANCH  14  19
ATOM     19  N   UNL d   1      25.577  16.904   9.862  0.00  0.00    -0.285 NA
ATOM     20  H   UNL d   1      26.397  16.314   9.763  0.00  0.00     0.125 HD
ATOM     21  H   UNL d   1      25.608  17.838   9.477  0.00  0.00     0.125 HD
ENDBRANCH  14  19
ENDBRANCH   7  10
BRANCH   8  22
ATOM     22  O   UNL d   1      21.918  18.519  15.862  0.00  0.00    -0.284 OA
BRANCH  22  23
ATOM     23  P   UNL d   1      23.230  19.369  16.147  0.00  0.00     0.391 P 
ATOM     24  O   UNL d   1      23.065  20.480  17.129  0.00  0.00    -0.632 OA
BRANCH  23  25
ATOM     25  O   UNL d   1      24.428  18.405  16.554  0.00  0.00    -0.307 OA
ATOM     26  H   UNL d   1      25.179  18.938  16.879  0.00  0.00     0.222 HD
ENDBRANCH  23  25
BRANCH  23  27
ATOM     27  O   UNL d   1      23.707  19.967  14.746  0.00  0.00    -0.307 OA
ATOM     28  H   UNL d   1      23.137  19.629  14.031  0.00  0.00     0.222 HD
ENDBRANCH  23  27
ENDBRANCH  22  23
ENDBRANCH   8  22
BRANCH   9  29
ATOM     29  O   UNL d   1      19.475  17.997  16.492  0.00  0.00    -0.390 OA
ATOM     30  H   UNL d   1      18.535  18.031  16.749  0.00  0.00     0.210 HD
ENDBRANCH   9  29
ENDBRANCH   4   5
ENDBRANCH   3   4
ENDBRANCH   1   3
BRANCH   1  31
ATOM     31  O   UNL d   1      19.178  21.948  10.820  0.00  0.00    -0.188 OA
BRANCH  31  32
ATOM     32  P   UNL d   1      19.048  21.031   9.360  0.00  0.00     0.417 P 
ATOM     33  O   UNL d   1      20.207  20.019   9.433  0.00  0.00    -0.624 OA
ATOM     34  O   UNL d   1      18.021  20.092  10.040  0.00  0.00    -0.624 OA
BRANCH  32  35
ATOM     35  O   UNL d   1      20.195  22.079   8.600  0.00  0.00    -0.287 OA
BRANCH  35  36
ATOM     36  C   UNL d   1      19.639  22.590   7.374  0.00  0.00     0.216 C 
BRANCH  36  37
ATOM     37  C   UNL d   1      20.662  22.685   6.248  0.00  0.00     0.180 C 
ATOM     38  O   UNL d   1      21.979  22.872   6.819  0.00  0.00    -0.353 OA
ATOM     39  C   UNL d   1      22.772  21.754   6.393  0.00  0.00     0.259 C 
ATOM     40  C   UNL d   1      21.832  20.626   5.984  0.00  0.00     0.198 C 
ATOM     41  C   UNL d   1      20.733  21.450   5.346  0.00  0.00     0.182 C 
BRANCH  39  42
ATOM     42  N   UNL d   1      23.678  21.321   7.473  0.00  0.00    -0.336 N 
ATOM     43  C   UNL d   1      23.237  21.356   8.752  0.00  0.00     0.110 A 
ATOM     44  C   UNL d   1      24.038  20.907   9.797  0.00  0.00     0.047 A 
ATOM     45  C   UNL d   1      25.318  20.442   9.515  0.00  0.00     0.020 A 
ATOM     46  C   UNL d   1      25.767  20.437   8.195  0.00  0.00     0.018 A 
ATOM     47  C   UNL d   1      24.927  20.883   7.184  0.00  0.00     0.093 A 
BRANCH  44  48
ATOM     48  C   UNL d   1      23.442  20.949  11.154  0.00  0.00     0.250 C 
ATOM     49  O   UNL d   1      24.087  20.547  12.116  0.00  0.00    -0.268 OA
ATOM     50  N   UNL d   1      22.183  21.448  11.312  0.00  0.00    -0.366 N 
ATOM     51  H   UNL d   1      21.582  21.798  10.581  0.00  0.00     0.159 HD
ATOM     52  H   UNL d   1      21.805  21.450  12.253  0.00  0.00     0.159 HD
ENDBRANCH  44  48
ENDBRANCH  39  42
BRANCH  40  53
ATOM     53  O   UNL d   1      22.470  19.709   5.098  0.00  0.00    -0.388 OA
ATOM     54  H   UNL d   1      21.802  19.029   4.868  0.00  0.00     0.210 HD
ENDBRANCH  40  53
BRANCH  41  55
ATOM     55  O   UNL d   1      21.209  21.827   4.039  0.00  0.00    -0.390 OA
ATOM     56  H   UNL d   1      20.500  22.332   3.592  0.00  0.00     0.210 HD
ENDBRANCH  41  55
ENDBRANCH  36  37
ENDBRANCH  35  36
ENDBRANCH  32  35
ENDBRANCH  31  32
ENDBRANCH   1  31
BRANCH   1  57
ATOM     57  O   UNL d   1      19.665  21.650  13.140  0.00  0.00    -0.307 OA
ATOM     58  H   UNL d   1      20.413  21.033  13.146  0.00  0.00     0.222 HD
ENDBRANCH   1  57
TORSDOF 20
ENDMDL
