@<TRIPOS>MOLECULE
NAP
 76 80 0 0 0
SMALL
GASTEIGER

@<TRIPOS>ATOM
      1 P           6.0513    0.1543    2.1530 P.3     1  UNL11       0.4804
      2 O           6.2534    1.5168    2.8620 O.2     1  UNL11      -0.2270
      3 O           6.7509    0.4657    0.6914 O.3     1  UNL11      -0.3023
      4 O           7.5497   -0.4823    2.7383 O.3     1  UNL11      -0.2838
      5 C           7.8448   -1.8353    2.4003 C.3     1  UNL11       0.0879
      6 C           6.8184   -2.8438    2.8937 C.3     1  UNL11       0.1134
      7 O           5.5406   -2.5659    2.3235 O.3     1  UNL11      -0.3456
      8 C           7.1400   -4.3044    2.6444 C.3     1  UNL11       0.1144
      9 O           6.8038   -5.0323    3.8531 O.3     1  UNL11      -0.3864
     10 C           6.2409   -4.7353    1.4857 C.3     1  UNL11       0.1433
     11 O           5.7109   -6.0340    1.7448 O.3     1  UNL11      -0.2762
     12 C           5.0977   -3.7130    1.5942 C.3     1  UNL11       0.1675
     13 N           4.5025   -3.2704    0.3495 N.pl3   1  UNL11      -0.2855
     14 C           3.9395   -4.0368   -0.6403 C.3     1  UNL11       0.1004
     15 N           3.6080   -3.3168   -1.6944 N.pl3   1  UNL11      -0.2306
     16 C           3.9955   -2.0324   -1.3820 C.3     1  UNL11       0.1473
     17 C           3.9286   -0.8198   -2.0881 C.3     1  UNL11       0.1472
     18 N           3.3403   -0.6986   -3.3411 N.pl3   1  UNL11      -0.3413
     19 N           4.4786    0.2838   -1.5289 N.pl3   1  UNL11      -0.2188
     20 C           5.0295    0.1708   -0.2994 C.3     1  UNL11       0.1205
     21 N           5.1174   -0.9230    0.4826 N.pl3   1  UNL11      -0.2159
     22 C           4.5767   -1.9861   -0.1280 C.3     1  UNL11       0.1674
     23 O           4.5530    0.7909    1.5676 O.3     1  UNL11      -0.2292
     24 P           3.6471    1.3434    2.9340 P.3     1  UNL11       0.2222
     25 O           2.4447    1.6567    2.0103 O.2     1  UNL11      -0.5170
     26 O           4.0611    2.8165    3.1031 O.co2   1  UNL11      -0.4370
     27 O           4.9907    0.9932    3.9662 O.3     1  UNL11      -0.3245
     28 C           4.5229    0.3222    5.1506 C.3     1  UNL11       0.0838
     29 C           3.5142    1.1447    5.9440 C.3     1  UNL11       0.1176
     30 O           3.1155    0.3999    7.1195 O.3     1  UNL11      -0.3094
     31 C           4.0357    2.5005    6.4258 C.3     1  UNL11       0.1184
     32 O           2.9347    3.4162    6.5913 O.3     1  UNL11      -0.3862
     33 C           4.5522    2.1915    7.8162 C.3     1  UNL11       0.1727
     34 O           4.6060    3.3196    8.6873 O.3     1  UNL11      -0.3803
     35 C           3.4834    1.1982    8.2543 C.3     1  UNL11       0.2949
     36 N           3.9753    0.3429    9.3513 N.pl3   1  UNL11      -0.1731
     37 C           3.3267    0.3637   10.5391 C.3     1  UNL11       0.1859
     38 C           3.7216   -0.4645   11.5843 C.3     1  UNL11       0.1000
     39 C           2.9172   -0.3944   12.8270 C.2     1  UNL11       0.2472
     40 O           2.3564    0.6528   13.1311 O.2     1  UNL11      -0.2702
     41 N           2.8036   -1.5036   13.6096 N.am    1  UNL11      -0.3252
     42 C           4.8172   -1.3029   11.4035 C.3     1  UNL11      -0.0383
     43 C           5.4898   -1.2930   10.1823 C.3     1  UNL11       0.0029
     44 C           5.0509   -0.4592    9.1641 C.3     1  UNL11       0.1738
     45 P           4.7905   -6.4360    2.9756 P.3     1  UNL11       0.4728
     46 O           5.3480   -7.4952    3.8657 O.2     1  UNL11      -0.2275
     47 O           4.3807   -5.1378    3.7989 O.3     1  UNL11      -0.3026
     48 O           3.3994   -6.9321    2.3688 O.3     1  UNL11      -0.3026
     49 H           6.9218    1.4212    0.6968 H       1  UNL11       0.2220
     50 H           7.9198   -1.9284    1.3082 H       1  UNL11       0.0592
     51 H           8.8063   -2.0897    2.8623 H       1  UNL11       0.0592
     52 H           6.7154   -2.6678    3.9763 H       1  UNL11       0.0647
     53 H           8.2060   -4.5024    2.4621 H       1  UNL11       0.0648
     54 H           5.8346   -5.0019    3.9493 H       1  UNL11       0.2100
     55 H           6.7632   -4.6662    0.5259 H       1  UNL11       0.0674
     56 H           4.2740   -4.1433    2.1833 H       1  UNL11       0.0867
     57 H           3.8122   -5.1101   -0.5506 H       1  UNL11       0.1030
     58 H           3.2565   -1.5836   -3.8303 H       1  UNL11       0.1438
     59 H           3.6825    0.1018   -3.8531 H       1  UNL11       0.1438
     60 H           5.4612    1.0792    0.1111 H       1  UNL11       0.1048
     61 H           4.0314   -0.6186    4.8925 H       1  UNL11       0.0591
     62 H           5.3971    0.1007    5.7734 H       1  UNL11       0.0591
     63 H           2.6111    1.2690    5.3335 H       1  UNL11       0.0648
     64 H           4.7720    2.9827    5.7668 H       1  UNL11       0.0649
     65 H           2.5163    3.5476    5.7164 H       1  UNL11       0.2100
     66 H           5.5430    1.7341    7.7818 H       1  UNL11       0.0716
     67 H           4.3266    4.0971    8.1588 H       1  UNL11       0.2103
     68 H           2.5742    1.6975    8.6158 H       1  UNL11       0.1444
     69 H           2.4817    1.0453   10.6245 H       1  UNL11       0.1385
     70 H           3.2299   -2.4032   13.4387 H       1  UNL11       0.1453
     71 H           2.2545   -1.4139   14.4579 H       1  UNL11       0.1453
     72 H           5.1730   -1.9677   12.1839 H       1  UNL11       0.0629
     73 H           6.3534   -1.9336   10.0199 H       1  UNL11       0.0677
     74 H           5.5453   -0.4306    8.1956 H       1  UNL11       0.1377
     75 H           4.4744   -5.3162    4.7548 H       1  UNL11       0.2220
     76 H           3.1909   -7.8234    2.7053 H       1  UNL11       0.2220
@<TRIPOS>UNITY_ATOM_ATTR
26 1
charge -1
36 1
charge 1
@<TRIPOS>BOND
     1     1     4    1
     2     1    23    1
     3     3    49    1
     4     4     5    1
     5     5     6    1
     6     5    50    1
     7     5    51    1
     8     6     7    1
     9     6     8    1
    10     6    52    1
    11     7    12    1
    12     8     9    1
    13     8    10    1
    14     8    53    1
    15     9    54    1
    16    10    12    1
    17    11    45    1
    18    13    14   ar
    19    13    22   ar
    20    14    15   ar
    21    14    57    1
    22    15    16   ar
    23    16    17   ar
    24    16    22   ar
    25    17    18    1
    26    17    19   ar
    27    18    58    1
    28    18    59    1
    29    19    20   ar
    30    20    21   ar
    31    20    60    1
    32    21    22   ar
    33    24    26    1
    34    24    27    1
    35    27    28    1
    36    28    29    1
    37    28    61    1
    38    28    62    1
    39    29    30    1
    40    29    31    1
    41    29    63    1
    42    30    35    1
    43    31    32    1
    44    31    33    1
    45    31    64    1
    46    32    65    1
    47    33    35    1
    48    34    67    1
    49    36    37   ar
    50    36    44   ar
    51    37    38   ar
    52    37    69    1
    53    38    39    1
    54    38    42   ar
    55    39    40    2
    56    39    41   am
    57    41    70    1
    58    41    71    1
    59    42    43   ar
    60    42    72    1
    61    43    44   ar
    62    43    73    1
    63    44    74    1
    64    45    46    2
    65    45    47    1
    66    45    48    1
    67    47    75    1
    68    48    76    1
    69     1     3    1
    70     1     2    2
    71    10    55    1
    72    10    11    1
    73    12    56    1
    74    12    13    1
    75    24    25    2
    76    24    23    1
    77    33    66    1
    78    33    34    1
    79    35    68    1
    80    35    36    1
