@<TRIPOS>MOLECULE
135444742
 55 57 0 0 0
SMALL
GASTEIGER

@<TRIPOS>ATOM
      1 O           4.5380   -4.0603    2.7204 O.2     1  UNL1       -0.2657
      2 O           9.9584    2.2047   -4.5813 O.2     1  UNL1       -0.2702
      3 O           9.6925    3.6182   -6.6662 O.3     1  UNL1       -0.4793
      4 OXT        10.0762    5.7966   -7.0068 O.2     1  UNL1       -0.2489
      5 OE1        14.5034    6.8816   -5.0273 O.3     1  UNL1       -0.4806
      6 OE2        13.6500    6.4520   -2.9884 O.2     1  UNL1       -0.2510
      7 N           4.0703   -1.6737    1.2853 N.pl3   1  UNL1       -0.3311
      8 N           1.3660   -1.1751    0.7040 N.pl3   1  UNL1       -0.3256
      9 N           5.2520    0.1157   -0.7490 N.pl3   1  UNL1       -0.3420
     10 N           0.7453   -3.2737    1.6384 N.ar    1  UNL1       -0.1994
     11 N           2.3447   -4.6413    2.6471 N.ar    1  UNL1       -0.2937
     12 N           9.0982    4.1754   -3.8528 N.am    1  UNL1       -0.2983
     13 N           0.1068   -5.2096    2.6921 N.pl3   1  UNL1       -0.3289
     14 C           3.6351   -0.2713    1.0886 C.3     1  UNL1        0.0517
     15 C           2.3809   -0.2590    0.1667 C.3     1  UNL1        0.0303
     16 C           4.7736    0.6006    0.5435 C.3     1  UNL1        0.0289
     17 C           3.0475   -2.5895    1.5905 C.ar    1  UNL1        0.1330
     18 C           1.7330   -2.3804    1.3112 C.ar    1  UNL1        0.1487
     19 C           3.3904   -3.8247    2.3495 C.ar    1  UNL1        0.2755
     20 C           6.3175    0.7420   -1.3906 C.ar    1  UNL1        0.0272
     21 CA          9.9052    5.0877   -4.6875 C.3     1  UNL1        0.1209
     22 CB         11.3316    5.2414   -4.1425 C.3     1  UNL1       -0.0140
     23 C           1.0657   -4.3343    2.3033 C.ar    1  UNL1        0.1948
     24 C           6.8965    1.9368   -0.9434 C.ar    1  UNL1       -0.0401
     25 C           6.7455    0.2289   -2.6220 C.ar    1  UNL1       -0.0401
     26 C           8.2806    2.0806   -2.9199 C.ar    1  UNL1        0.0368
     27 C           7.8846    2.5938   -1.6861 C.ar    1  UNL1       -0.0479
     28 C           7.7219    0.8833   -3.3802 C.ar    1  UNL1       -0.0479
     29 CG         12.1992    6.2463   -4.9148 C.3     1  UNL1        0.0470
     30 C           9.2219    2.8078   -3.8087 C.2     0  ACE0        0.2447
     31 C           9.8625    4.8757   -6.2219 C.2     1  UNL1        0.3253
     32 CD         13.5023    6.5113   -4.1967 C.2     1  UNL1        0.3048
     33 H           3.3477    0.1282    2.0715 H       1  UNL1        0.0528
     34 H           2.6361   -0.5788   -0.8505 H       1  UNL1        0.0480
     35 H           1.9620    0.7510    0.1091 H       1  UNL1        0.0480
     36 H           4.4121    1.6302    0.4461 H       1  UNL1        0.0480
     37 H           5.5993    0.5883    1.2673 H       1  UNL1        0.0480
     38 H           4.8737   -1.8172    1.8983 H       1  UNL1        0.1467
     39 H           0.5139   -1.2885    0.1650 H       1  UNL1        0.1476
     40 H           5.2940   -0.9052   -0.7936 H       1  UNL1        0.1461
     41 HA          9.3941    6.0510   -4.5476 H       1  UNL1        0.0614
     42 H           2.5483   -5.4453    3.2117 H       1  UNL1        0.1716
     43 HB1        11.2564    5.5676   -3.0951 H       1  UNL1        0.0294
     44 HB2        11.8438    4.2730   -4.1189 H       1  UNL1        0.0294
     45 H           6.5938    2.3836   -0.0017 H       1  UNL1        0.0636
     46 H           6.2885   -0.6749   -3.0207 H       1  UNL1        0.0636
     47 H           8.4808    4.6201   -3.1847 H       1  UNL1        0.1498
     48 H           8.3277    3.4981   -1.2810 H       1  UNL1        0.0626
     49 H           8.0105    0.4732   -4.3459 H       1  UNL1        0.0626
     50 HG1        12.4265    5.8400   -5.9054 H       1  UNL1        0.0378
     51 HG2        11.6832    7.2061   -5.0337 H       1  UNL1        0.0378
     52 H           0.3589   -6.1860    2.7475 H       1  UNL1        0.1451
     53 H          -0.7770   -5.0435    2.2214 H       1  UNL1        0.1451
     54 H           9.7404    2.9383   -5.9498 H       1  UNL1        0.2951
     55 HE1        14.2566    6.9065   -5.9718 H       1  UNL1        0.2951
@<TRIPOS>BOND
     1     1    19    2
     2     2    30    2
     3     3    31    1
     4     3    54    1
     5     4    31    2
     6     5    32    1
     7     5    55    1
     8     6    32    2
     9     7    14    1
    10     7    17    1
    11     7    38    1
    12     8    15    1
    13     8    18    1
    14     8    39    1
    15     9    16    1
    16     9    20    1
    17     9    40    1
    18    10    18   ar
    19    10    23   ar
    20    11    19   ar
    21    11    23   ar
    22    11    42    1
    23    21    12    1
    24    12    30   am
    25    12    47    1
    26    13    23    1
    27    13    52    1
    28    13    53    1
    29    14    15    1
    30    14    16    1
    31    14    33    1
    32    15    34    1
    33    15    35    1
    34    16    36    1
    35    16    37    1
    36    17    18   ar
    37    17    19   ar
    38    20    24   ar
    39    20    25   ar
    40    21    22    1
    41    21    31    1
    42    21    41    1
    43    22    29    1
    44    22    43    1
    45    22    44    1
    46    24    27   ar
    47    24    45    1
    48    25    28   ar
    49    25    46    1
    50    26    27   ar
    51    26    28   ar
    52    26    30    1
    53    27    48    1
    54    28    49    1
    55    29    32    1
    56    29    50    1
    57    29    51    1
