REMARK  12 active torsions:
REMARK  status: ('A' for Active; 'I' for Inactive)
REMARK    1  A    between atoms: O_3  and  C_31 
REMARK    2  A    between atoms: OE1_5  and  CD_32 
REMARK    3  A    between atoms: N_9  and  C_16 
REMARK    4  A    between atoms: N_9  and  C_20 
REMARK    5  A    between atoms: CA_21  and  N_12 
REMARK       I    between atoms: N_12  and  C_30 
REMARK    6  A    between atoms: N_13  and  C_23 
REMARK    7  A    between atoms: C_14  and  C_16 
REMARK    8  A    between atoms: CA_21  and  CB_22 
REMARK    9  A    between atoms: CA_21  and  C_31 
REMARK   10  A    between atoms: CB_22  and  CG_29 
REMARK   11  A    between atoms: C_26  and  C_30 
REMARK   12  A    between atoms: CG_29  and  CD_32 
ROOT
ATOM      1  C   UNL d   1       6.317   0.742  -1.391  0.00  0.00     0.028 A 
ATOM      2  C   UNL d   1       6.896   1.937  -0.943  0.00  0.00     0.030 A 
ATOM      3  C   UNL d   1       6.745   0.229  -2.622  0.00  0.00     0.030 A 
ATOM      4  C   UNL d   1       8.281   2.081  -2.920  0.00  0.00     0.032 A 
ATOM      5  C   UNL d   1       7.885   2.594  -1.686  0.00  0.00     0.019 A 
ATOM      6  C   UNL d   1       7.722   0.883  -3.380  0.00  0.00     0.019 A 
ENDROOT
BRANCH   1   7
ATOM      7  N   UNL d   1       5.252   0.116  -0.749  0.00  0.00    -0.388 N 
ATOM      8  H   UNL d   1       5.294  -0.905  -0.794  0.00  0.00     0.159 HD
BRANCH   7   9
ATOM      9  C   UNL d   1       4.774   0.601   0.543  0.00  0.00     0.141 C 
BRANCH   9  10
ATOM     10  C   UNL d   1       3.635  -0.271   1.089  0.00  0.00     0.096 C 
ATOM     11  N   UNL d   1       4.070  -1.674   1.285  0.00  0.00    -0.278 NA
ATOM     12  C   UNL d   1       3.047  -2.590   1.591  0.00  0.00     0.123 A 
ATOM     13  H   UNL d   1       4.874  -1.817   1.898  0.00  0.00     0.128 HD
ATOM     14  C   UNL d   1       1.733  -2.380   1.311  0.00  0.00     0.153 A 
ATOM     15  C   UNL d   1       3.390  -3.825   2.349  0.00  0.00     0.272 A 
ATOM     16  N   UNL d   1       1.366  -1.175   0.704  0.00  0.00    -0.371 N 
ATOM     17  N   UNL d   1       0.745  -3.274   1.638  0.00  0.00    -0.201 NA
ATOM     18  C   UNL d   1       2.381  -0.259   0.167  0.00  0.00     0.142 C 
ATOM     19  H   UNL d   1       0.514  -1.288   0.165  0.00  0.00     0.161 HD
ATOM     20  C   UNL d   1       1.066  -4.334   2.303  0.00  0.00     0.181 A 
ATOM     21  N   UNL d   1       2.345  -4.641   2.647  0.00  0.00    -0.297 N 
ATOM     22  H   UNL d   1       2.548  -5.445   3.212  0.00  0.00     0.171 HD
ATOM     23  O   UNL d   1       4.538  -4.060   2.720  0.00  0.00    -0.266 OA
BRANCH  20  24
ATOM     24  N   UNL d   1       0.107  -5.210   2.692  0.00  0.00    -0.272 NA
ATOM     25  H   UNL d   1       0.359  -6.186   2.748  0.00  0.00     0.127 HD
ATOM     26  H   UNL d   1      -0.777  -5.043   2.221  0.00  0.00     0.127 HD
ENDBRANCH  20  24
ENDBRANCH   9  10
ENDBRANCH   7   9
ENDBRANCH   1   7
BRANCH   4  27
ATOM     27  C   ACE d   0       9.222   2.808  -3.809  0.00  0.00     0.252 C 
ATOM     28  O   UNL d   1       9.958   2.205  -4.581  0.00  0.00    -0.268 OA
ATOM     29  N   UNL d   1       9.098   4.175  -3.853  0.00  0.00    -0.343 N 
ATOM     30  H   UNL d   1       8.481   4.620  -3.185  0.00  0.00     0.163 HD
BRANCH  29  31
ATOM     31  CA  UNL d   1       9.905   5.088  -4.688  0.00  0.00     0.183 C 
BRANCH  31  32
ATOM     32  CB  UNL d   1      11.332   5.241  -4.143  0.00  0.00     0.046 C 
BRANCH  32  33
ATOM     33  CG  UNL d   1      12.199   6.246  -4.915  0.00  0.00     0.112 C 
BRANCH  33  34
ATOM     34  CD  UNL d   1      13.502   6.511  -4.197  0.00  0.00     0.139 C 
ATOM     35  OE2 UNL d   1      13.650   6.452  -2.988  0.00  0.00    -0.650 OA
BRANCH  34  36
ATOM     36  OE1 UNL d   1      14.503   6.882  -5.027  0.00  0.00    -0.776 OA
ATOM     37  HE1 UNL d   1      14.257   6.907  -5.972  0.00  0.00     0.167 HD
ENDBRANCH  34  36
ENDBRANCH  33  34
ENDBRANCH  32  33
ENDBRANCH  31  32
BRANCH  31  38
ATOM     38  C   UNL d   1       9.863   4.876  -6.222  0.00  0.00     0.163 C 
ATOM     39  OXT UNL d   1      10.076   5.797  -7.007  0.00  0.00    -0.648 OA
BRANCH  38  40
ATOM     40  O   UNL d   1       9.693   3.618  -6.666  0.00  0.00    -0.775 OA
ATOM     41  H   UNL d   1       9.740   2.938  -5.950  0.00  0.00     0.167 HD
ENDBRANCH  38  40
ENDBRANCH  31  38
ENDBRANCH  29  31
ENDBRANCH   4  27
TORSDOF 12
