MODEL 1
REMARK VINA RESULT:      -6.1      0.000      0.000
REMARK  3 active torsions:
REMARK  status: ('A' for Active; 'I' for Inactive)
REMARK    1  A    between atoms: C_1  and  O_3 
REMARK    2  A    between atoms: C_1  and  C_4 
REMARK    3  A    between atoms: C_5  and  O_10 
ROOT
ATOM      1  C   UNL d   1       6.965 -10.624 -26.204  0.00  0.00     0.070 A 
ATOM      2  C   UNL d   1       6.198 -11.617 -25.581  0.00  0.00     0.082 A 
ATOM      3  C   UNL d   1       6.523 -12.064 -24.300  0.00  0.00     0.037 A 
ATOM      4  C   UNL d   1       7.623 -11.528 -23.631  0.00  0.00     0.003 A 
ATOM      5  C   UNL d   1       8.401 -10.547 -24.244  0.00  0.00     0.001 A 
ATOM      6  C   UNL d   1       8.073 -10.094 -25.524  0.00  0.00     0.021 A 
ENDROOT
BRANCH   1   7
ATOM      7  C   UNL d   1       6.675 -10.082 -27.557  0.00  0.00     0.178 C 
ATOM      8  O   UNL d   1       5.626 -10.186 -28.164  0.00  0.00    -0.646 OA
BRANCH   7   9
ATOM      9  O   UNL d   1       7.727  -9.432 -28.099  0.00  0.00    -0.773 OA
ATOM     10  H   UNL d   1       8.234 -10.155 -28.531  0.00  0.00     0.167 HD
ENDBRANCH   7   9
ENDBRANCH   1   7
BRANCH   2  11
ATOM     11  O   UNL d   1       5.106 -12.210 -26.158  0.00  0.00    -0.360 OA
ATOM     12  H   UNL d   1       5.418 -13.022 -26.608  0.00  0.00     0.217 HD
ENDBRANCH   2  11
TORSDOF 3
ENDMDL
MODEL 2
REMARK VINA RESULT:      -6.0      1.258      2.290
REMARK  3 active torsions:
REMARK  status: ('A' for Active; 'I' for Inactive)
REMARK    1  A    between atoms: C_1  and  O_3 
REMARK    2  A    between atoms: C_1  and  C_4 
REMARK    3  A    between atoms: C_5  and  O_10 
ROOT
ATOM      1  C   UNL d   1       7.008 -11.477 -26.400  0.00  0.00     0.070 A 
ATOM      2  C   UNL d   1       7.992 -10.764 -25.703  0.00  0.00     0.082 A 
ATOM      3  C   UNL d   1       8.107 -10.884 -24.317  0.00  0.00     0.037 A 
ATOM      4  C   UNL d   1       7.234 -11.713 -23.613  0.00  0.00     0.003 A 
ATOM      5  C   UNL d   1       6.244 -12.420 -24.293  0.00  0.00     0.001 A 
ATOM      6  C   UNL d   1       6.132 -12.305 -25.681  0.00  0.00     0.021 A 
ENDROOT
BRANCH   1   7
ATOM      7  C   UNL d   1       6.832 -11.417 -27.874  0.00  0.00     0.178 C 
ATOM      8  O   UNL d   1       5.792 -11.581 -28.482  0.00  0.00    -0.646 OA
BRANCH   7   9
ATOM      9  O   UNL d   1       7.985 -11.157 -28.529  0.00  0.00    -0.773 OA
ATOM     10  H   UNL d   1       8.648 -11.124 -27.804  0.00  0.00     0.167 HD
ENDBRANCH   7   9
ENDBRANCH   1   7
BRANCH   2  11
ATOM     11  O   UNL d   1       8.889  -9.920 -26.302  0.00  0.00    -0.360 OA
ATOM     12  H   UNL d   1       8.386  -9.345 -26.915  0.00  0.00     0.217 HD
ENDBRANCH   2  11
TORSDOF 3
ENDMDL
MODEL 3
REMARK VINA RESULT:      -6.0      1.702      3.171
REMARK  3 active torsions:
REMARK  status: ('A' for Active; 'I' for Inactive)
REMARK    1  A    between atoms: C_1  and  O_3 
REMARK    2  A    between atoms: C_1  and  C_4 
REMARK    3  A    between atoms: C_5  and  O_10 
ROOT
ATOM      1  C   UNL d   1       7.028 -11.054 -25.222  0.00  0.00     0.070 A 
ATOM      2  C   UNL d   1       7.979 -10.967 -24.197  0.00  0.00     0.082 A 
ATOM      3  C   UNL d   1       8.957  -9.971 -24.221  0.00  0.00     0.037 A 
ATOM      4  C   UNL d   1       8.998  -9.057 -25.274  0.00  0.00     0.003 A 
ATOM      5  C   UNL d   1       8.064  -9.139 -26.304  0.00  0.00     0.001 A 
ATOM      6  C   UNL d   1       7.080 -10.131 -26.279  0.00  0.00     0.021 A 
ENDROOT
BRANCH   1   7
ATOM      7  C   UNL d   1       5.946 -12.071 -25.260  0.00  0.00     0.178 C 
ATOM      8  O   UNL d   1       5.695 -12.888 -24.396  0.00  0.00    -0.646 OA
BRANCH   7   9
ATOM      9  O   UNL d   1       5.221 -12.023 -26.399  0.00  0.00    -0.773 OA
ATOM     10  H   UNL d   1       4.555 -11.326 -26.207  0.00  0.00     0.167 HD
ENDBRANCH   7   9
ENDBRANCH   1   7
BRANCH   2  11
ATOM     11  O   UNL d   1       8.027 -11.820 -23.128  0.00  0.00    -0.360 OA
ATOM     12  H   UNL d   1       8.971 -11.944 -22.895  0.00  0.00     0.217 HD
ENDBRANCH   2  11
TORSDOF 3
ENDMDL
MODEL 4
REMARK VINA RESULT:      -6.0      2.742      4.147
REMARK  3 active torsions:
REMARK  status: ('A' for Active; 'I' for Inactive)
REMARK    1  A    between atoms: C_1  and  O_3 
REMARK    2  A    between atoms: C_1  and  C_4 
REMARK    3  A    between atoms: C_5  and  O_10 
ROOT
ATOM      1  C   UNL d   1       7.428  -9.703 -24.631  0.00  0.00     0.070 A 
ATOM      2  C   UNL d   1       8.011  -9.985 -25.873  0.00  0.00     0.082 A 
ATOM      3  C   UNL d   1       7.484  -9.437 -27.043  0.00  0.00     0.037 A 
ATOM      4  C   UNL d   1       6.365  -8.608 -26.985  0.00  0.00     0.003 A 
ATOM      5  C   UNL d   1       5.770  -8.326 -25.756  0.00  0.00     0.001 A 
ATOM      6  C   UNL d   1       6.300  -8.869 -24.583  0.00  0.00     0.021 A 
ENDROOT
BRANCH   1   7
ATOM      7  C   UNL d   1       7.939 -10.231 -23.340  0.00  0.00     0.178 C 
ATOM      8  O   UNL d   1       8.312  -9.571 -22.389  0.00  0.00    -0.646 OA
BRANCH   7   9
ATOM      9  O   UNL d   1       7.967 -11.581 -23.300  0.00  0.00    -0.773 OA
ATOM     10  H   UNL d   1       7.027 -11.816 -23.135  0.00  0.00     0.167 HD
ENDBRANCH   7   9
ENDBRANCH   1   7
BRANCH   2  11
ATOM     11  O   UNL d   1       9.104 -10.793 -26.036  0.00  0.00    -0.360 OA
ATOM     12  H   UNL d   1       8.775 -11.693 -26.240  0.00  0.00     0.217 HD
ENDBRANCH   2  11
TORSDOF 3
ENDMDL
MODEL 5
REMARK VINA RESULT:      -6.0      1.468      3.047
REMARK  3 active torsions:
REMARK  status: ('A' for Active; 'I' for Inactive)
REMARK    1  A    between atoms: C_1  and  O_3 
REMARK    2  A    between atoms: C_1  and  C_4 
REMARK    3  A    between atoms: C_5  and  O_10 
ROOT
ATOM      1  C   UNL d   1       7.101 -10.972 -24.887  0.00  0.00     0.070 A 
ATOM      2  C   UNL d   1       8.051 -10.519 -25.812  0.00  0.00     0.082 A 
ATOM      3  C   UNL d   1       9.056  -9.634 -25.420  0.00  0.00     0.037 A 
ATOM      4  C   UNL d   1       9.118  -9.186 -24.101  0.00  0.00     0.003 A 
ATOM      5  C   UNL d   1       8.174  -9.621 -23.172  0.00  0.00     0.001 A 
ATOM      6  C   UNL d   1       7.170 -10.512 -23.562  0.00  0.00     0.021 A 
ENDROOT
BRANCH   1   7
ATOM      7  C   UNL d   1       6.013 -11.926 -25.220  0.00  0.00     0.178 C 
ATOM      8  O   UNL d   1       5.385 -11.967 -26.260  0.00  0.00    -0.646 OA
BRANCH   7   9
ATOM      9  O   UNL d   1       5.752 -12.795 -24.218  0.00  0.00    -0.773 OA
ATOM     10  H   UNL d   1       6.386 -12.521 -23.519  0.00  0.00     0.167 HD
ENDBRANCH   7   9
ENDBRANCH   1   7
BRANCH   2  11
ATOM     11  O   UNL d   1       8.070 -10.893 -27.129  0.00  0.00    -0.360 OA
ATOM     12  H   UNL d   1       8.090 -11.873 -27.155  0.00  0.00     0.217 HD
ENDBRANCH   2  11
TORSDOF 3
ENDMDL
MODEL 6
REMARK VINA RESULT:      -5.9      2.128      3.348
REMARK  3 active torsions:
REMARK  status: ('A' for Active; 'I' for Inactive)
REMARK    1  A    between atoms: C_1  and  O_3 
REMARK    2  A    between atoms: C_1  and  C_4 
REMARK    3  A    between atoms: C_5  and  O_10 
ROOT
ATOM      1  C   UNL d   1       8.238 -10.265 -24.858  0.00  0.00     0.070 A 
ATOM      2  C   UNL d   1       7.738 -10.561 -26.133  0.00  0.00     0.082 A 
ATOM      3  C   UNL d   1       6.771 -11.553 -26.303  0.00  0.00     0.037 A 
ATOM      4  C   UNL d   1       6.298 -12.264 -25.201  0.00  0.00     0.003 A 
ATOM      5  C   UNL d   1       6.794 -11.986 -23.928  0.00  0.00     0.001 A 
ATOM      6  C   UNL d   1       7.758 -10.989 -23.756  0.00  0.00     0.021 A 
ENDROOT
BRANCH   1   7
ATOM      7  C   UNL d   1       9.253  -9.214 -24.592  0.00  0.00     0.178 C 
ATOM      8  O   UNL d   1      10.173  -8.900 -25.323  0.00  0.00    -0.646 OA
BRANCH   7   9
ATOM      9  O   UNL d   1       9.073  -8.600 -23.403  0.00  0.00    -0.773 OA
ATOM     10  H   UNL d   1       9.490  -9.223 -22.767  0.00  0.00     0.167 HD
ENDBRANCH   7   9
ENDBRANCH   1   7
BRANCH   2  11
ATOM     11  O   UNL d   1       8.144  -9.926 -27.276  0.00  0.00    -0.360 OA
ATOM     12  H   UNL d   1       7.926  -8.976 -27.177  0.00  0.00     0.217 HD
ENDBRANCH   2  11
TORSDOF 3
ENDMDL
MODEL 7
REMARK VINA RESULT:      -5.9      0.876      2.629
REMARK  3 active torsions:
REMARK  status: ('A' for Active; 'I' for Inactive)
REMARK    1  A    between atoms: C_1  and  O_3 
REMARK    2  A    between atoms: C_1  and  C_4 
REMARK    3  A    between atoms: C_5  and  O_10 
ROOT
ATOM      1  C   UNL d   1       6.893 -10.565 -26.005  0.00  0.00     0.070 A 
ATOM      2  C   UNL d   1       7.872  -9.620 -26.339  0.00  0.00     0.082 A 
ATOM      3  C   UNL d   1       8.838  -9.241 -25.406  0.00  0.00     0.037 A 
ATOM      4  C   UNL d   1       8.832  -9.798 -24.128  0.00  0.00     0.003 A 
ATOM      5  C   UNL d   1       7.858 -10.732 -23.779  0.00  0.00     0.001 A 
ATOM      6  C   UNL d   1       6.893 -11.117 -24.714  0.00  0.00     0.021 A 
ENDROOT
BRANCH   1   7
ATOM      7  C   UNL d   1       5.842 -11.034 -26.944  0.00  0.00     0.178 C 
ATOM      8  O   UNL d   1       5.576 -10.548 -28.027  0.00  0.00    -0.646 OA
BRANCH   7   9
ATOM      9  O   UNL d   1       5.159 -12.101 -26.477  0.00  0.00    -0.773 OA
ATOM     10  H   UNL d   1       5.562 -12.252 -25.594  0.00  0.00     0.167 HD
ENDBRANCH   7   9
ENDBRANCH   1   7
BRANCH   2  11
ATOM     11  O   UNL d   1       7.956  -9.011 -27.562  0.00  0.00    -0.360 OA
ATOM     12  H   UNL d   1       7.044  -8.924 -27.910  0.00  0.00     0.217 HD
ENDBRANCH   2  11
TORSDOF 3
ENDMDL
MODEL 8
REMARK VINA RESULT:      -5.8      2.352      3.596
REMARK  3 active torsions:
REMARK  status: ('A' for Active; 'I' for Inactive)
REMARK    1  A    between atoms: C_1  and  O_3 
REMARK    2  A    between atoms: C_1  and  C_4 
REMARK    3  A    between atoms: C_5  and  O_10 
ROOT
ATOM      1  C   UNL d   1       6.948 -10.326 -24.695  0.00  0.00     0.070 A 
ATOM      2  C   UNL d   1       6.038 -11.173 -25.343  0.00  0.00     0.082 A 
ATOM      3  C   UNL d   1       5.511 -10.827 -26.587  0.00  0.00     0.037 A 
ATOM      4  C   UNL d   1       5.882  -9.628 -27.195  0.00  0.00     0.003 A 
ATOM      5  C   UNL d   1       6.779  -8.772 -26.558  0.00  0.00     0.001 A 
ATOM      6  C   UNL d   1       7.312  -9.120 -25.314  0.00  0.00     0.021 A 
ENDROOT
BRANCH   1   7
ATOM      7  C   UNL d   1       7.566 -10.630 -23.380  0.00  0.00     0.178 C 
ATOM      8  O   UNL d   1       7.670  -9.867 -22.439  0.00  0.00    -0.646 OA
BRANCH   7   9
ATOM      9  O   UNL d   1       8.040 -11.893 -23.302  0.00  0.00    -0.773 OA
ATOM     10  H   UNL d   1       8.985 -11.760 -23.064  0.00  0.00     0.167 HD
ENDBRANCH   7   9
ENDBRANCH   1   7
BRANCH   2  11
ATOM     11  O   UNL d   1       5.606 -12.364 -24.825  0.00  0.00    -0.360 OA
ATOM     12  H   UNL d   1       5.018 -12.777 -25.492  0.00  0.00     0.217 HD
ENDBRANCH   2  11
TORSDOF 3
ENDMDL
MODEL 9
REMARK VINA RESULT:      -5.7      2.538      3.717
REMARK  3 active torsions:
REMARK  status: ('A' for Active; 'I' for Inactive)
REMARK    1  A    between atoms: C_1  and  O_3 
REMARK    2  A    between atoms: C_1  and  C_4 
REMARK    3  A    between atoms: C_5  and  O_10 
ROOT
ATOM      1  C   UNL d   1       7.445 -11.008 -24.666  0.00  0.00     0.070 A 
ATOM      2  C   UNL d   1       8.302 -11.198 -25.757  0.00  0.00     0.082 A 
ATOM      3  C   UNL d   1       8.022 -12.172 -26.717  0.00  0.00     0.037 A 
ATOM      4  C   UNL d   1       6.886 -12.970 -26.592  0.00  0.00     0.003 A 
ATOM      5  C   UNL d   1       6.029 -12.798 -25.506  0.00  0.00     0.001 A 
ATOM      6  C   UNL d   1       6.305 -11.819 -24.547  0.00  0.00     0.021 A 
ENDROOT
BRANCH   1   7
ATOM      7  C   UNL d   1       7.663  -9.984 -23.613  0.00  0.00     0.178 C 
ATOM      8  O   UNL d   1       7.654 -10.172 -22.412  0.00  0.00    -0.646 OA
BRANCH   7   9
ATOM      9  O   UNL d   1       7.878  -8.749 -24.118  0.00  0.00    -0.773 OA
ATOM     10  H   UNL d   1       8.161  -8.936 -25.041  0.00  0.00     0.167 HD
ENDBRANCH   7   9
ENDBRANCH   1   7
BRANCH   2  11
ATOM     11  O   UNL d   1       9.445 -10.473 -25.964  0.00  0.00    -0.360 OA
ATOM     12  H   UNL d   1       9.746 -10.147 -25.090  0.00  0.00     0.217 HD
ENDBRANCH   2  11
TORSDOF 3
ENDMDL
