@<TRIPOS>MOLECULE
SAL
 16 16 0 0 0
SMALL
GASTEIGER

@<TRIPOS>ATOM
      1 C           1.0692    0.0580   -0.0741 C.2     1  UNL1        0.3404
      2 O           0.3923    1.0683   -0.0882 O.2     1  UNL1       -0.2450
      3 O           0.4915   -1.1630   -0.0600 O.3     1  UNL1       -0.4770
      4 C           2.5527   -0.0061   -0.0629 C.ar    1  UNL1        0.1001
      5 C           3.2813   -1.2034   -0.0469 C.ar    1  UNL1        0.1308
      6 C           4.6756   -1.1835   -0.0198 C.ar    1  UNL1       -0.0194
      7 C           5.3580    0.0326   -0.0163 C.ar    1  UNL1       -0.0583
      8 C           4.6462    1.2308   -0.0405 C.ar    1  UNL1       -0.0608
      9 C           3.2489    1.2131   -0.0622 C.ar    1  UNL1       -0.0442
     10 O           2.7055   -2.4451   -0.0577 O.3     1  UNL1       -0.5059
     11 H          -0.4693   -0.9521   -0.0543 H       1  UNL1        0.2954
     12 H           5.2291   -2.1189   -0.0012 H       1  UNL1        0.0654
     13 H           6.4451    0.0434    0.0048 H       1  UNL1        0.0619
     14 H           5.1786    2.1790   -0.0405 H       1  UNL1        0.0618
     15 H           2.7055    2.1563   -0.0767 H       1  UNL1        0.0627
     16 H           1.7338   -2.3172   -0.0860 H       1  UNL1        0.2922
@<TRIPOS>BOND
     1     1     2    2
     2     1     3    1
     3     1     4    1
     4     3    11    1
     5     4     5   ar
     6     4     9   ar
     7     5     6   ar
     8     5    10    1
     9     6     7   ar
    10     6    12    1
    11     7     8   ar
    12     7    13    1
    13     8     9   ar
    14     8    14    1
    15     9    15    1
    16    10    16    1
