REMARK  3 active torsions:
REMARK  status: ('A' for Active; 'I' for Inactive)
REMARK    1  A    between atoms: C_1  and  O_3 
REMARK    2  A    between atoms: C_1  and  C_4 
REMARK    3  A    between atoms: C_5  and  O_10 
ROOT
ATOM      1  C   UNL d   1       2.553  -0.006  -0.063  0.00  0.00     0.070 A 
ATOM      2  C   UNL d   1       3.281  -1.203  -0.047  0.00  0.00     0.082 A 
ATOM      3  C   UNL d   1       4.676  -1.183  -0.020  0.00  0.00     0.037 A 
ATOM      4  C   UNL d   1       5.358   0.033  -0.016  0.00  0.00     0.003 A 
ATOM      5  C   UNL d   1       4.646   1.231  -0.041  0.00  0.00     0.001 A 
ATOM      6  C   UNL d   1       3.249   1.213  -0.062  0.00  0.00     0.021 A 
ENDROOT
BRANCH   1   7
ATOM      7  C   UNL d   1       1.069   0.058  -0.074  0.00  0.00     0.178 C 
ATOM      8  O   UNL d   1       0.392   1.068  -0.088  0.00  0.00    -0.646 OA
BRANCH   7   9
ATOM      9  O   UNL d   1       0.491  -1.163  -0.060  0.00  0.00    -0.773 OA
ATOM     10  H   UNL d   1      -0.469  -0.952  -0.054  0.00  0.00     0.167 HD
ENDBRANCH   7   9
ENDBRANCH   1   7
BRANCH   2  11
ATOM     11  O   UNL d   1       2.705  -2.445  -0.058  0.00  0.00    -0.360 OA
ATOM     12  H   UNL d   1       1.734  -2.317  -0.086  0.00  0.00     0.217 HD
ENDBRANCH   2  11
TORSDOF 3
