MODEL 1
REMARK VINA RESULT:      -8.3      0.000      0.000
REMARK  12 active torsions:
REMARK  status: ('A' for Active; 'I' for Inactive)
REMARK    1  A    between atoms: C_2  and  N_3 
REMARK    2  A    between atoms: C_9  and  C_13 
REMARK    3  A    between atoms: C_13  and  N_14 
REMARK    4  A    between atoms: N_14  and  C_18 
REMARK    5  A    between atoms: C_15  and  C_21 
REMARK       I    between atoms: C_21  and  N_23 
REMARK    6  A    between atoms: N_23  and  CA_24 
REMARK    7  A    between atoms: CA_24  and  CB_25 
REMARK    8  A    between atoms: CA_24  and  C_30 
REMARK    9  A    between atoms: CB_25  and  CG_26 
REMARK   10  A    between atoms: CG_26  and  CD_27 
REMARK   11  A    between atoms: CD_27  and  OE2_29 
REMARK   12  A    between atoms: C_30  and  OXT_32 
ROOT
ATOM      1  C   UNK d   0      20.420  20.457   8.129  0.00  0.00     0.032 A 
ATOM      2  C   UNK d   0      20.693  19.298   8.862  0.00  0.00     0.019 A 
ATOM      3  C   UNK d   0      19.979  19.016  10.034  0.00  0.00     0.030 A 
ATOM      4  C   UNK d   0      18.946  19.849  10.469  0.00  0.00     0.028 A 
ATOM      5  C   UNK d   0      18.640  20.972   9.689  0.00  0.00     0.030 A 
ATOM      6  C   UNK d   0      19.369  21.283   8.532  0.00  0.00     0.019 A 
ENDROOT
BRANCH   4   7
ATOM      7  N   UNK d   0      18.259  19.636  11.642  0.00  0.00    -0.384 N 
ATOM      8  H   UNK d   0      17.497  18.958  11.664  0.00  0.00     0.160 HD
BRANCH   7   9
ATOM      9  C   UNK d   0      18.349  20.488  12.818  0.00  0.00     0.180 C 
BRANCH   9  10
ATOM     10  C   UNK d   0      19.420  19.976  13.764  0.00  0.00     0.070 A 
ATOM     11  N   UNK d   0      20.651  20.556  13.732  0.00  0.00    -0.241 NA
ATOM     12  C   UNK d   0      21.536  20.102  14.660  0.00  0.00     0.173 A 
ATOM     13  C   UNK d   0      22.897  20.707  14.747  0.00  0.00     0.302 A 
ATOM     14  C   UNK d   0      21.236  19.103  15.580  0.00  0.00     0.164 A 
ATOM     15  N   UNK d   0      23.750  20.319  15.770  0.00  0.00    -0.179 NA
ATOM     16  O   UNK d   0      23.231  21.541  13.909  0.00  0.00    -0.263 OA
ATOM     17  C   UNK d   0      23.365  19.377  16.567  0.00  0.00     0.182 A 
ATOM     18  N   UNK d   0      22.191  18.709  16.505  0.00  0.00    -0.314 N 
ATOM     19  H   UNK d   0      21.881  18.073  17.221  0.00  0.00     0.170 HD
ATOM     20  N   UNK d   0      20.021  18.502  15.589  0.00  0.00    -0.239 NA
ATOM     21  C   UNK d   0      19.130  18.958  14.669  0.00  0.00     0.147 A 
BRANCH  17  22
ATOM     22  N   UNK d   0      24.162  18.981  17.587  0.00  0.00    -0.272 NA
ATOM     23  H   UNK d   0      23.707  18.877  18.485  0.00  0.00     0.127 HD
ATOM     24  H   UNK d   0      24.679  18.140  17.339  0.00  0.00     0.127 HD
ENDBRANCH  17  22
ENDBRANCH   9  10
ENDBRANCH   7   9
ENDBRANCH   4   7
BRANCH   1  25
ATOM     25  C   UNK d   0      21.259  20.761   6.935  0.00  0.00     0.252 C 
ATOM     26  O   UNK d   0      21.864  19.859   6.367  0.00  0.00    -0.268 OA
ATOM     27  N   GLU d   1      21.334  22.082   6.543  0.00  0.00    -0.343 N 
ATOM     28  H   GLU d   1      21.025  22.815   7.173  0.00  0.00     0.163 HD
BRANCH  27  29
ATOM     29  CA  GLU d   1      22.187  22.497   5.427  0.00  0.00     0.183 C 
BRANCH  29  30
ATOM     30  CB  GLU d   1      21.383  22.841   4.167  0.00  0.00     0.046 C 
BRANCH  30  31
ATOM     31  CG  GLU d   1      19.869  22.687   4.325  0.00  0.00     0.112 C 
BRANCH  31  32
ATOM     32  CD  GLU d   1      19.382  21.484   3.564  0.00  0.00     0.139 C 
ATOM     33  OE1 GLU d   1      18.641  21.474   2.597  0.00  0.00    -0.650 OA
BRANCH  32  34
ATOM     34  OE2 GLU d   1      19.828  20.329   4.093  0.00  0.00    -0.776 OA
ATOM     35  HE2 GLU d   1      19.075  19.712   3.970  0.00  0.00     0.167 HD
ENDBRANCH  32  34
ENDBRANCH  31  32
ENDBRANCH  30  31
ENDBRANCH  29  30
BRANCH  29  36
ATOM     36  C   GLU d   1      23.136  23.644   5.793  0.00  0.00     0.163 C 
ATOM     37  O   GLU d   1      23.128  24.775   5.330  0.00  0.00    -0.648 OA
BRANCH  36  38
ATOM     38  OXT GLU d   1      24.093  23.304   6.690  0.00  0.00    -0.775 OA
ATOM     39  HXT GLU d   1      24.581  24.146   6.830  0.00  0.00     0.167 HD
ENDBRANCH  36  38
ENDBRANCH  29  36
ENDBRANCH  27  29
ENDBRANCH   1  25
TORSDOF 12
ENDMDL
MODEL 2
REMARK VINA RESULT:      -8.3      3.401     10.381
REMARK  12 active torsions:
REMARK  status: ('A' for Active; 'I' for Inactive)
REMARK    1  A    between atoms: C_2  and  N_3 
REMARK    2  A    between atoms: C_9  and  C_13 
REMARK    3  A    between atoms: C_13  and  N_14 
REMARK    4  A    between atoms: N_14  and  C_18 
REMARK    5  A    between atoms: C_15  and  C_21 
REMARK       I    between atoms: C_21  and  N_23 
REMARK    6  A    between atoms: N_23  and  CA_24 
REMARK    7  A    between atoms: CA_24  and  CB_25 
REMARK    8  A    between atoms: CA_24  and  C_30 
REMARK    9  A    between atoms: CB_25  and  CG_26 
REMARK   10  A    between atoms: CG_26  and  CD_27 
REMARK   11  A    between atoms: CD_27  and  OE2_29 
REMARK   12  A    between atoms: C_30  and  OXT_32 
ROOT
ATOM      1  C   UNK d   0      19.424  20.526  11.056  0.00  0.00     0.032 A 
ATOM      2  C   UNK d   0      20.271  19.574  10.478  0.00  0.00     0.019 A 
ATOM      3  C   UNK d   0      20.618  19.664   9.124  0.00  0.00     0.030 A 
ATOM      4  C   UNK d   0      20.177  20.728   8.333  0.00  0.00     0.028 A 
ATOM      5  C   UNK d   0      19.383  21.709   8.943  0.00  0.00     0.030 A 
ATOM      6  C   UNK d   0      19.002  21.613  10.289  0.00  0.00     0.019 A 
ENDROOT
BRANCH   4   7
ATOM      7  N   UNK d   0      20.450  20.822   6.988  0.00  0.00    -0.384 N 
ATOM      8  H   UNK d   0      19.690  20.995   6.330  0.00  0.00     0.160 HD
BRANCH   7   9
ATOM      9  C   UNK d   0      21.711  20.437   6.373  0.00  0.00     0.180 C 
BRANCH   9  10
ATOM     10  C   UNK d   0      22.401  21.650   5.773  0.00  0.00     0.070 A 
ATOM     11  N   UNK d   0      23.586  21.474   5.128  0.00  0.00    -0.241 NA
ATOM     12  C   UNK d   0      24.107  22.588   4.547  0.00  0.00     0.173 A 
ATOM     13  C   UNK d   0      25.378  22.496   3.770  0.00  0.00     0.302 A 
ATOM     14  C   UNK d   0      23.500  23.838   4.606  0.00  0.00     0.164 A 
ATOM     15  N   UNK d   0      25.839  23.611   3.086  0.00  0.00    -0.179 NA
ATOM     16  O   UNK d   0      25.986  21.429   3.751  0.00  0.00    -0.263 OA
ATOM     17  C   UNK d   0      25.193  24.723   3.216  0.00  0.00     0.182 A 
ATOM     18  N   UNK d   0      24.090  24.921   3.972  0.00  0.00    -0.314 N 
ATOM     19  H   UNK d   0      23.548  25.769   3.944  0.00  0.00     0.170 HD
ATOM     20  N   UNK d   0      22.336  24.019   5.277  0.00  0.00    -0.239 NA
ATOM     21  C   UNK d   0      21.807  22.907   5.852  0.00  0.00     0.147 A 
BRANCH  17  22
ATOM     22  N   UNK d   0      25.602  25.829   2.551  0.00  0.00    -0.272 NA
ATOM     23  H   UNK d   0      26.597  25.898   2.384  0.00  0.00     0.127 HD
ATOM     24  H   UNK d   0      25.076  25.949   1.688  0.00  0.00     0.127 HD
ENDBRANCH  17  22
ENDBRANCH   9  10
ENDBRANCH   7   9
ENDBRANCH   4   7
BRANCH   1  25
ATOM     25  C   UNK d   0      19.015  20.347  12.478  0.00  0.00     0.252 C 
ATOM     26  O   UNK d   0      18.176  21.090  12.971  0.00  0.00    -0.268 OA
ATOM     27  N   GLU d   1      19.644  19.343  13.188  0.00  0.00    -0.343 N 
ATOM     28  H   GLU d   1      20.491  18.920  12.823  0.00  0.00     0.163 HD
BRANCH  27  29
ATOM     29  CA  GLU d   1      19.366  19.129  14.610  0.00  0.00     0.183 C 
BRANCH  29  30
ATOM     30  CB  GLU d   1      18.417  17.951  14.855  0.00  0.00     0.046 C 
BRANCH  30  31
ATOM     31  CG  GLU d   1      17.134  18.321  15.603  0.00  0.00     0.112 C 
BRANCH  31  32
ATOM     32  CD  GLU d   1      17.372  18.304  17.089  0.00  0.00     0.139 C 
ATOM     33  OE1 GLU d   1      17.978  17.463  17.729  0.00  0.00    -0.650 OA
BRANCH  32  34
ATOM     34  OE2 GLU d   1      16.789  19.345  17.713  0.00  0.00    -0.776 OA
ATOM     35  HE2 GLU d   1      15.837  19.236  17.505  0.00  0.00     0.167 HD
ENDBRANCH  32  34
ENDBRANCH  31  32
ENDBRANCH  30  31
ENDBRANCH  29  30
BRANCH  29  36
ATOM     36  C   GLU d   1      20.639  18.983  15.452  0.00  0.00     0.163 C 
ATOM     37  O   GLU d   1      21.659  19.649  15.354  0.00  0.00    -0.648 OA
BRANCH  36  38
ATOM     38  OXT GLU d   1      20.595  17.968  16.348  0.00  0.00    -0.775 OA
ATOM     39  HXT GLU d   1      21.493  17.572  16.284  0.00  0.00     0.167 HD
ENDBRANCH  36  38
ENDBRANCH  29  36
ENDBRANCH  27  29
ENDBRANCH   1  25
TORSDOF 12
ENDMDL
MODEL 3
REMARK VINA RESULT:      -8.3      3.049     10.611
REMARK  12 active torsions:
REMARK  status: ('A' for Active; 'I' for Inactive)
REMARK    1  A    between atoms: C_2  and  N_3 
REMARK    2  A    between atoms: C_9  and  C_13 
REMARK    3  A    between atoms: C_13  and  N_14 
REMARK    4  A    between atoms: N_14  and  C_18 
REMARK    5  A    between atoms: C_15  and  C_21 
REMARK       I    between atoms: C_21  and  N_23 
REMARK    6  A    between atoms: N_23  and  CA_24 
REMARK    7  A    between atoms: CA_24  and  CB_25 
REMARK    8  A    between atoms: CA_24  and  C_30 
REMARK    9  A    between atoms: CB_25  and  CG_26 
REMARK   10  A    between atoms: CG_26  and  CD_27 
REMARK   11  A    between atoms: CD_27  and  OE2_29 
REMARK   12  A    between atoms: C_30  and  OXT_32 
ROOT
ATOM      1  C   UNK d   0      20.702  19.768  10.816  0.00  0.00     0.032 A 
ATOM      2  C   UNK d   0      20.450  20.770   9.873  0.00  0.00     0.019 A 
ATOM      3  C   UNK d   0      20.900  20.632   8.553  0.00  0.00     0.030 A 
ATOM      4  C   UNK d   0      21.560  19.475   8.132  0.00  0.00     0.028 A 
ATOM      5  C   UNK d   0      21.747  18.452   9.071  0.00  0.00     0.030 A 
ATOM      6  C   UNK d   0      21.331  18.592  10.403  0.00  0.00     0.019 A 
ENDROOT
BRANCH   4   7
ATOM      7  N   UNK d   0      22.065  19.324   6.861  0.00  0.00    -0.384 N 
ATOM      8  H   UNK d   0      22.040  18.407   6.415  0.00  0.00     0.160 HD
BRANCH   7   9
ATOM      9  C   UNK d   0      22.881  20.313   6.175  0.00  0.00     0.180 C 
BRANCH   9  10
ATOM     10  C   UNK d   0      22.012  21.210   5.311  0.00  0.00     0.070 A 
ATOM     11  N   UNK d   0      20.932  20.668   4.685  0.00  0.00    -0.241 NA
ATOM     12  C   UNK d   0      20.154  21.544   3.994  0.00  0.00     0.173 A 
ATOM     13  C   UNK d   0      18.916  21.063   3.314  0.00  0.00     0.302 A 
ATOM     14  C   UNK d   0      20.430  22.905   3.902  0.00  0.00     0.164 A 
ATOM     15  N   UNK d   0      18.070  21.983   2.710  0.00  0.00    -0.179 NA
ATOM     16  O   UNK d   0      18.672  19.860   3.307  0.00  0.00    -0.263 OA
ATOM     17  C   UNK d   0      18.431  23.224   2.684  0.00  0.00     0.182 A 
ATOM     18  N   UNK d   0      19.576  23.734   3.190  0.00  0.00    -0.314 N 
ATOM     19  H   UNK d   0      19.756  24.722   3.259  0.00  0.00     0.170 HD
ATOM     20  N   UNK d   0      21.524  23.439   4.498  0.00  0.00    -0.239 NA
ATOM     21  C   UNK d   0      22.300  22.568   5.197  0.00  0.00     0.147 A 
BRANCH  17  22
ATOM     22  N   UNK d   0      17.625  24.154   2.119  0.00  0.00    -0.272 NA
ATOM     23  H   UNK d   0      17.231  24.837   2.753  0.00  0.00     0.127 HD
ATOM     24  H   UNK d   0      18.089  24.607   1.334  0.00  0.00     0.127 HD
ENDBRANCH  17  22
ENDBRANCH   9  10
ENDBRANCH   7   9
ENDBRANCH   4   7
BRANCH   1  25
ATOM     25  C   UNK d   0      20.278  19.993  12.226  0.00  0.00     0.252 C 
ATOM     26  O   UNK d   0      20.135  21.134  12.648  0.00  0.00    -0.268 OA
ATOM     27  N   GLU d   1      20.095  18.871  13.010  0.00  0.00    -0.343 N 
ATOM     28  H   GLU d   1      20.455  17.974  12.702  0.00  0.00     0.163 HD
BRANCH  27  29
ATOM     29  CA  GLU d   1      19.748  18.983  14.429  0.00  0.00     0.183 C 
BRANCH  29  30
ATOM     30  CB  GLU d   1      18.827  17.852  14.901  0.00  0.00     0.046 C 
BRANCH  30  31
ATOM     31  CG  GLU d   1      17.477  18.326  15.446  0.00  0.00     0.112 C 
BRANCH  31  32
ATOM     32  CD  GLU d   1      17.462  18.243  16.949  0.00  0.00     0.139 C 
ATOM     33  OE1 GLU d   1      16.583  18.631  17.699  0.00  0.00    -0.650 OA
BRANCH  32  34
ATOM     34  OE2 GLU d   1      18.592  17.704  17.444  0.00  0.00    -0.776 OA
ATOM     35  HE2 GLU d   1      18.603  18.006  18.377  0.00  0.00     0.167 HD
ENDBRANCH  32  34
ENDBRANCH  31  32
ENDBRANCH  30  31
ENDBRANCH  29  30
BRANCH  29  36
ATOM     36  C   GLU d   1      20.977  19.095  15.338  0.00  0.00     0.163 C 
ATOM     37  O   GLU d   1      21.398  18.243  16.106  0.00  0.00    -0.648 OA
BRANCH  36  38
ATOM     38  OXT GLU d   1      21.597  20.299  15.282  0.00  0.00    -0.775 OA
ATOM     39  HXT GLU d   1      22.508  20.071  14.989  0.00  0.00     0.167 HD
ENDBRANCH  36  38
ENDBRANCH  29  36
ENDBRANCH  27  29
ENDBRANCH   1  25
TORSDOF 12
ENDMDL
MODEL 4
REMARK VINA RESULT:      -8.1      2.482      3.754
REMARK  12 active torsions:
REMARK  status: ('A' for Active; 'I' for Inactive)
REMARK    1  A    between atoms: C_2  and  N_3 
REMARK    2  A    between atoms: C_9  and  C_13 
REMARK    3  A    between atoms: C_13  and  N_14 
REMARK    4  A    between atoms: N_14  and  C_18 
REMARK    5  A    between atoms: C_15  and  C_21 
REMARK       I    between atoms: C_21  and  N_23 
REMARK    6  A    between atoms: N_23  and  CA_24 
REMARK    7  A    between atoms: CA_24  and  CB_25 
REMARK    8  A    between atoms: CA_24  and  C_30 
REMARK    9  A    between atoms: CB_25  and  CG_26 
REMARK   10  A    between atoms: CG_26  and  CD_27 
REMARK   11  A    between atoms: CD_27  and  OE2_29 
REMARK   12  A    between atoms: C_30  and  OXT_32 
ROOT
ATOM      1  C   UNK d   0      20.665  21.843   6.140  0.00  0.00     0.032 A 
ATOM      2  C   UNK d   0      21.456  20.801   6.633  0.00  0.00     0.019 A 
ATOM      3  C   UNK d   0      21.520  20.549   8.010  0.00  0.00     0.030 A 
ATOM      4  C   UNK d   0      20.758  21.290   8.917  0.00  0.00     0.028 A 
ATOM      5  C   UNK d   0      19.920  22.288   8.402  0.00  0.00     0.030 A 
ATOM      6  C   UNK d   0      19.873  22.572   7.029  0.00  0.00     0.019 A 
ENDROOT
BRANCH   4   7
ATOM      7  N   UNK d   0      20.835  21.110  10.279  0.00  0.00    -0.384 N 
ATOM      8  H   UNK d   0      20.497  21.842  10.903  0.00  0.00     0.160 HD
BRANCH   7   9
ATOM      9  C   UNK d   0      21.603  20.061  10.930  0.00  0.00     0.180 C 
BRANCH   9  10
ATOM     10  C   UNK d   0      21.044  19.775  12.313  0.00  0.00     0.070 A 
ATOM     11  N   UNK d   0      19.738  19.408  12.427  0.00  0.00    -0.241 NA
ATOM     12  C   UNK d   0      19.326  19.090  13.684  0.00  0.00     0.173 A 
ATOM     13  C   UNK d   0      17.927  18.624  13.912  0.00  0.00     0.302 A 
ATOM     14  C   UNK d   0      20.157  19.144  14.798  0.00  0.00     0.164 A 
ATOM     15  N   UNK d   0      17.552  18.192  15.176  0.00  0.00    -0.179 NA
ATOM     16  O   UNK d   0      17.139  18.629  12.971  0.00  0.00    -0.263 OA
ATOM     17  C   UNK d   0      18.409  18.292  16.139  0.00  0.00     0.182 A 
ATOM     18  N   UNK d   0      19.663  18.788  16.043  0.00  0.00    -0.314 N 
ATOM     19  H   UNK d   0      20.337  18.729  16.789  0.00  0.00     0.170 HD
ATOM     20  N   UNK d   0      21.448  19.543  14.689  0.00  0.00    -0.239 NA
ATOM     21  C   UNK d   0      21.867  19.853  13.434  0.00  0.00     0.147 A 
BRANCH  17  22
ATOM     22  N   UNK d   0      18.086  17.866  17.383  0.00  0.00    -0.272 NA
ATOM     23  H   UNK d   0      18.408  16.938  17.627  0.00  0.00     0.127 HD
ATOM     24  H   UNK d   0      18.368  18.548  18.084  0.00  0.00     0.127 HD
ENDBRANCH  17  22
ENDBRANCH   9  10
ENDBRANCH   7   9
ENDBRANCH   4   7
BRANCH   1  25
ATOM     25  C   UNK d   0      20.690  22.128   4.678  0.00  0.00     0.252 C 
ATOM     26  O   UNK d   0      21.655  21.789   4.005  0.00  0.00    -0.268 OA
ATOM     27  N   GLU d   1      19.607  22.806   4.154  0.00  0.00    -0.343 N 
ATOM     28  H   GLU d   1      18.957  23.277   4.774  0.00  0.00     0.163 HD
BRANCH  27  29
ATOM     29  CA  GLU d   1      19.565  23.198   2.743  0.00  0.00     0.183 C 
BRANCH  29  30
ATOM     30  CB  GLU d   1      18.152  23.130   2.154  0.00  0.00     0.046 C 
BRANCH  30  31
ATOM     31  CG  GLU d   1      17.851  21.840   1.388  0.00  0.00     0.112 C 
BRANCH  31  32
ATOM     32  CD  GLU d   1      17.269  20.805   2.314  0.00  0.00     0.139 C 
ATOM     33  OE1 GLU d   1      16.094  20.641   2.591  0.00  0.00    -0.650 OA
BRANCH  32  34
ATOM     34  OE2 GLU d   1      18.217  20.041   2.888  0.00  0.00    -0.776 OA
ATOM     35  HE2 GLU d   1      19.056  20.404   2.531  0.00  0.00     0.167 HD
ENDBRANCH  32  34
ENDBRANCH  31  32
ENDBRANCH  30  31
ENDBRANCH  29  30
BRANCH  29  36
ATOM     36  C   GLU d   1      20.193  24.573   2.487  0.00  0.00     0.163 C 
ATOM     37  O   GLU d   1      21.385  24.842   2.480  0.00  0.00    -0.648 OA
BRANCH  36  38
ATOM     38  OXT GLU d   1      19.291  25.567   2.302  0.00  0.00    -0.775 OA
ATOM     39  HXT GLU d   1      18.985  25.425   1.378  0.00  0.00     0.167 HD
ENDBRANCH  36  38
ENDBRANCH  29  36
ENDBRANCH  27  29
ENDBRANCH   1  25
TORSDOF 12
ENDMDL
MODEL 5
REMARK VINA RESULT:      -8.1      7.205     13.490
REMARK  12 active torsions:
REMARK  status: ('A' for Active; 'I' for Inactive)
REMARK    1  A    between atoms: C_2  and  N_3 
REMARK    2  A    between atoms: C_9  and  C_13 
REMARK    3  A    between atoms: C_13  and  N_14 
REMARK    4  A    between atoms: N_14  and  C_18 
REMARK    5  A    between atoms: C_15  and  C_21 
REMARK       I    between atoms: C_21  and  N_23 
REMARK    6  A    between atoms: N_23  and  CA_24 
REMARK    7  A    between atoms: CA_24  and  CB_25 
REMARK    8  A    between atoms: CA_24  and  C_30 
REMARK    9  A    between atoms: CB_25  and  CG_26 
REMARK   10  A    between atoms: CG_26  and  CD_27 
REMARK   11  A    between atoms: CD_27  and  OE2_29 
REMARK   12  A    between atoms: C_30  and  OXT_32 
ROOT
ATOM      1  C   UNK d   0      19.201  22.086   3.207  0.00  0.00     0.032 A 
ATOM      2  C   UNK d   0      19.143  20.699   3.374  0.00  0.00     0.019 A 
ATOM      3  C   UNK d   0      18.305  19.922   2.563  0.00  0.00     0.030 A 
ATOM      4  C   UNK d   0      17.553  20.500   1.537  0.00  0.00     0.028 A 
ATOM      5  C   UNK d   0      17.672  21.882   1.340  0.00  0.00     0.030 A 
ATOM      6  C   UNK d   0      18.481  22.675   2.166  0.00  0.00     0.019 A 
ENDROOT
BRANCH   4   7
ATOM      7  N   UNK d   0      16.678  19.780   0.756  0.00  0.00    -0.384 N 
ATOM      8  H   UNK d   0      15.968  19.198   1.200  0.00  0.00     0.160 HD
BRANCH   7   9
ATOM      9  C   UNK d   0      16.833  19.566  -0.674  0.00  0.00     0.180 C 
BRANCH   9  10
ATOM     10  C   UNK d   0      15.505  19.175  -1.299  0.00  0.00     0.070 A 
ATOM     11  N   UNK d   0      15.502  18.670  -2.563  0.00  0.00    -0.241 NA
ATOM     12  C   UNK d   0      14.289  18.267  -3.029  0.00  0.00     0.173 A 
ATOM     13  C   UNK d   0      14.181  17.649  -4.383  0.00  0.00     0.302 A 
ATOM     14  C   UNK d   0      13.113  18.369  -2.293  0.00  0.00     0.164 A 
ATOM     15  N   UNK d   0      12.961  17.138  -4.802  0.00  0.00    -0.179 NA
ATOM     16  O   UNK d   0      15.179  17.605  -5.097  0.00  0.00    -0.263 OA
ATOM     17  C   UNK d   0      11.934  17.293  -4.034  0.00  0.00     0.182 A 
ATOM     18  N   UNK d   0      11.919  17.920  -2.837  0.00  0.00    -0.314 N 
ATOM     19  H   UNK d   0      11.126  17.906  -2.217  0.00  0.00     0.170 HD
ATOM     20  N   UNK d   0      13.112  18.904  -1.048  0.00  0.00    -0.239 NA
ATOM     21  C   UNK d   0      14.323  19.300  -0.574  0.00  0.00     0.147 A 
BRANCH  17  22
ATOM     22  N   UNK d   0      10.729  16.793  -4.400  0.00  0.00    -0.272 NA
ATOM     23  H   UNK d   0      10.669  16.443  -5.347  0.00  0.00     0.127 HD
ATOM     24  H   UNK d   0      10.407  16.096  -3.730  0.00  0.00     0.127 HD
ENDBRANCH  17  22
ENDBRANCH   9  10
ENDBRANCH   7   9
ENDBRANCH   4   7
BRANCH   1  25
ATOM     25  C   UNK d   0      20.042  22.882   4.145  0.00  0.00     0.252 C 
ATOM     26  O   UNK d   0      20.407  24.009   3.833  0.00  0.00    -0.268 OA
ATOM     27  N   GLU d   1      20.397  22.277   5.334  0.00  0.00    -0.343 N 
ATOM     28  H   GLU d   1      20.284  21.275   5.445  0.00  0.00     0.163 HD
BRANCH  27  29
ATOM     29  CA  GLU d   1      21.279  22.945   6.294  0.00  0.00     0.183 C 
BRANCH  29  30
ATOM     30  CB  GLU d   1      21.427  22.161   7.603  0.00  0.00     0.046 C 
BRANCH  30  31
ATOM     31  CG  GLU d   1      20.801  20.764   7.574  0.00  0.00     0.112 C 
BRANCH  31  32
ATOM     32  CD  GLU d   1      21.875  19.710   7.573  0.00  0.00     0.139 C 
ATOM     33  OE1 GLU d   1      22.018  18.803   8.375  0.00  0.00    -0.650 OA
BRANCH  32  34
ATOM     34  OE2 GLU d   1      22.756  19.877   6.569  0.00  0.00    -0.776 OA
ATOM     35  HE2 GLU d   1      22.294  19.500   5.790  0.00  0.00     0.167 HD
ENDBRANCH  32  34
ENDBRANCH  31  32
ENDBRANCH  30  31
ENDBRANCH  29  30
BRANCH  29  36
ATOM     36  C   GLU d   1      22.654  23.283   5.706  0.00  0.00     0.163 C 
ATOM     37  O   GLU d   1      23.536  22.491   5.410  0.00  0.00    -0.648 OA
BRANCH  36  38
ATOM     38  OXT GLU d   1      22.884  24.611   5.567  0.00  0.00    -0.775 OA
ATOM     39  HXT GLU d   1      22.066  24.936   5.129  0.00  0.00     0.167 HD
ENDBRANCH  36  38
ENDBRANCH  29  36
ENDBRANCH  27  29
ENDBRANCH   1  25
TORSDOF 12
ENDMDL
MODEL 6
REMARK VINA RESULT:      -8.0      3.579     10.348
REMARK  12 active torsions:
REMARK  status: ('A' for Active; 'I' for Inactive)
REMARK    1  A    between atoms: C_2  and  N_3 
REMARK    2  A    between atoms: C_9  and  C_13 
REMARK    3  A    between atoms: C_13  and  N_14 
REMARK    4  A    between atoms: N_14  and  C_18 
REMARK    5  A    between atoms: C_15  and  C_21 
REMARK       I    between atoms: C_21  and  N_23 
REMARK    6  A    between atoms: N_23  and  CA_24 
REMARK    7  A    between atoms: CA_24  and  CB_25 
REMARK    8  A    between atoms: CA_24  and  C_30 
REMARK    9  A    between atoms: CB_25  and  CG_26 
REMARK   10  A    between atoms: CG_26  and  CD_27 
REMARK   11  A    between atoms: CD_27  and  OE2_29 
REMARK   12  A    between atoms: C_30  and  OXT_32 
ROOT
ATOM      1  C   UNK d   0      20.059  20.143   9.159  0.00  0.00     0.032 A 
ATOM      2  C   UNK d   0      20.188  21.472   8.745  0.00  0.00     0.019 A 
ATOM      3  C   UNK d   0      21.249  21.857   7.916  0.00  0.00     0.030 A 
ATOM      4  C   UNK d   0      22.170  20.921   7.438  0.00  0.00     0.028 A 
ATOM      5  C   UNK d   0      21.990  19.581   7.808  0.00  0.00     0.030 A 
ATOM      6  C   UNK d   0      20.950  19.189   8.664  0.00  0.00     0.019 A 
ENDROOT
BRANCH   4   7
ATOM      7  N   UNK d   0      23.256  21.267   6.668  0.00  0.00    -0.384 N 
ATOM      8  H   UNK d   0      23.981  21.868   7.061  0.00  0.00     0.160 HD
BRANCH   7   9
ATOM      9  C   UNK d   0      23.349  21.063   5.232  0.00  0.00     0.180 C 
BRANCH   9  10
ATOM     10  C   UNK d   0      22.354  21.949   4.504  0.00  0.00     0.070 A 
ATOM     11  N   UNK d   0      21.151  21.423   4.143  0.00  0.00    -0.241 NA
ATOM     12  C   UNK d   0      20.279  22.294   3.568  0.00  0.00     0.173 A 
ATOM     13  C   UNK d   0      18.914  21.832   3.182  0.00  0.00     0.302 A 
ATOM     14  C   UNK d   0      20.576  23.633   3.336  0.00  0.00     0.164 A 
ATOM     15  N   UNK d   0      17.994  22.754   2.703  0.00  0.00    -0.179 NA
ATOM     16  O   UNK d   0      18.633  20.643   3.301  0.00  0.00    -0.263 OA
ATOM     17  C   UNK d   0      18.383  23.974   2.526  0.00  0.00     0.182 A 
ATOM     18  N   UNK d   0      19.623  24.459   2.759  0.00  0.00    -0.314 N 
ATOM     19  H   UNK d   0      19.846  25.440   2.726  0.00  0.00     0.170 HD
ATOM     20  N   UNK d   0      21.785  24.149   3.665  0.00  0.00    -0.239 NA
ATOM     21  C   UNK d   0      22.657  23.284   4.249  0.00  0.00     0.147 A 
BRANCH  17  22
ATOM     22  N   UNK d   0      17.511  24.907   2.076  0.00  0.00    -0.272 NA
ATOM     23  H   UNK d   0      17.381  25.712   2.675  0.00  0.00     0.127 HD
ATOM     24  H   UNK d   0      17.741  25.191   1.125  0.00  0.00     0.127 HD
ENDBRANCH  17  22
ENDBRANCH   9  10
ENDBRANCH   7   9
ENDBRANCH   4   7
BRANCH   1  25
ATOM     25  C   UNK d   0      18.963  19.793  10.106  0.00  0.00     0.252 C 
ATOM     26  O   UNK d   0      17.820  20.177   9.889  0.00  0.00    -0.268 OA
ATOM     27  N   GLU d   1      19.312  19.061  11.223  0.00  0.00    -0.343 N 
ATOM     28  H   GLU d   1      20.288  18.977  11.488  0.00  0.00     0.163 HD
BRANCH  27  29
ATOM     29  CA  GLU d   1      18.325  18.727  12.253  0.00  0.00     0.183 C 
BRANCH  29  30
ATOM     30  CB  GLU d   1      18.356  17.244  12.639  0.00  0.00     0.046 C 
BRANCH  30  31
ATOM     31  CG  GLU d   1      19.731  16.586  12.502  0.00  0.00     0.112 C 
BRANCH  31  32
ATOM     32  CD  GLU d   1      20.136  15.945  13.802  0.00  0.00     0.139 C 
ATOM     33  OE1 GLU d   1      20.606  14.831  13.959  0.00  0.00    -0.650 OA
BRANCH  32  34
ATOM     34  OE2 GLU d   1      19.886  16.735  14.863  0.00  0.00    -0.776 OA
ATOM     35  HE2 GLU d   1      19.456  16.131  15.505  0.00  0.00     0.167 HD
ENDBRANCH  32  34
ENDBRANCH  31  32
ENDBRANCH  30  31
ENDBRANCH  29  30
BRANCH  29  36
ATOM     36  C   GLU d   1      18.437  19.614  13.499  0.00  0.00     0.163 C 
ATOM     37  O   GLU d   1      18.422  19.242  14.663  0.00  0.00    -0.648 OA
BRANCH  36  38
ATOM     38  OXT GLU d   1      18.508  20.939  13.228  0.00  0.00    -0.775 OA
ATOM     39  HXT GLU d   1      19.445  21.064  12.959  0.00  0.00     0.167 HD
ENDBRANCH  36  38
ENDBRANCH  29  36
ENDBRANCH  27  29
ENDBRANCH   1  25
TORSDOF 12
ENDMDL
MODEL 7
REMARK VINA RESULT:      -7.9      6.236     10.787
REMARK  12 active torsions:
REMARK  status: ('A' for Active; 'I' for Inactive)
REMARK    1  A    between atoms: C_2  and  N_3 
REMARK    2  A    between atoms: C_9  and  C_13 
REMARK    3  A    between atoms: C_13  and  N_14 
REMARK    4  A    between atoms: N_14  and  C_18 
REMARK    5  A    between atoms: C_15  and  C_21 
REMARK       I    between atoms: C_21  and  N_23 
REMARK    6  A    between atoms: N_23  and  CA_24 
REMARK    7  A    between atoms: CA_24  and  CB_25 
REMARK    8  A    between atoms: CA_24  and  C_30 
REMARK    9  A    between atoms: CB_25  and  CG_26 
REMARK   10  A    between atoms: CG_26  and  CD_27 
REMARK   11  A    between atoms: CD_27  and  OE2_29 
REMARK   12  A    between atoms: C_30  and  OXT_32 
ROOT
ATOM      1  C   UNK d   0      16.879  19.562  -0.583  0.00  0.00     0.032 A 
ATOM      2  C   UNK d   0      16.447  19.332   0.727  0.00  0.00     0.019 A 
ATOM      3  C   UNK d   0      16.760  20.241   1.746  0.00  0.00     0.030 A 
ATOM      4  C   UNK d   0      17.460  21.419   1.475  0.00  0.00     0.028 A 
ATOM      5  C   UNK d   0      17.830  21.667   0.146  0.00  0.00     0.030 A 
ATOM      6  C   UNK d   0      17.551  20.750  -0.877  0.00  0.00     0.019 A 
ENDROOT
BRANCH   4   7
ATOM      7  N   UNK d   0      17.834  22.308   2.456  0.00  0.00    -0.384 N 
ATOM      8  H   UNK d   0      17.149  22.610   3.150  0.00  0.00     0.160 HD
BRANCH   7   9
ATOM      9  C   UNK d   0      19.071  23.073   2.449  0.00  0.00     0.180 C 
BRANCH   9  10
ATOM     10  C   UNK d   0      20.028  22.543   3.502  0.00  0.00     0.070 A 
ATOM     11  N   UNK d   0      20.976  23.381   4.004  0.00  0.00    -0.241 NA
ATOM     12  C   UNK d   0      21.746  22.865   5.000  0.00  0.00     0.173 A 
ATOM     13  C   UNK d   0      22.781  23.716   5.656  0.00  0.00     0.302 A 
ATOM     14  C   UNK d   0      21.607  21.567   5.480  0.00  0.00     0.164 A 
ATOM     15  N   UNK d   0      23.480  23.218   6.746  0.00  0.00    -0.179 NA
ATOM     16  O   UNK d   0      22.988  24.844   5.216  0.00  0.00    -0.263 OA
ATOM     17  C   UNK d   0      23.270  21.993   7.103  0.00  0.00     0.182 A 
ATOM     18  N   UNK d   0      22.423  21.123   6.510  0.00  0.00    -0.314 N 
ATOM     19  H   UNK d   0      22.198  20.222   6.899  0.00  0.00     0.170 HD
ATOM     20  N   UNK d   0      20.685  20.722   4.957  0.00  0.00    -0.239 NA
ATOM     21  C   UNK d   0      19.907  21.236   3.968  0.00  0.00     0.147 A 
BRANCH  17  22
ATOM     22  N   UNK d   0      23.921  21.476   8.172  0.00  0.00    -0.272 NA
ATOM     23  H   UNK d   0      24.701  22.019   8.516  0.00  0.00     0.127 HD
ATOM     24  H   UNK d   0      23.268  21.255   8.922  0.00  0.00     0.127 HD
ENDBRANCH  17  22
ENDBRANCH   9  10
ENDBRANCH   7   9
ENDBRANCH   4   7
BRANCH   1  25
ATOM     25  C   UNK d   0      16.595  18.529  -1.620  0.00  0.00     0.252 C 
ATOM     26  O   UNK d   0      17.483  17.769  -1.986  0.00  0.00    -0.268 OA
ATOM     27  N   GLU d   1      15.319  18.506  -2.146  0.00  0.00    -0.343 N 
ATOM     28  H   GLU d   1      14.697  19.294  -1.999  0.00  0.00     0.163 HD
BRANCH  27  29
ATOM     29  CA  GLU d   1      14.956  17.579  -3.220  0.00  0.00     0.183 C 
BRANCH  29  30
ATOM     30  CB  GLU d   1      13.501  17.107  -3.124  0.00  0.00     0.046 C 
BRANCH  30  31
ATOM     31  CG  GLU d   1      12.608  17.992  -2.251  0.00  0.00     0.112 C 
BRANCH  31  32
ATOM     32  CD  GLU d   1      11.287  18.234  -2.930  0.00  0.00     0.139 C 
ATOM     33  OE1 GLU d   1      10.189  17.854  -2.563  0.00  0.00    -0.650 OA
BRANCH  32  34
ATOM     34  OE2 GLU d   1      11.421  18.920  -4.080  0.00  0.00    -0.776 OA
ATOM     35  HE2 GLU d   1      12.243  18.557  -4.473  0.00  0.00     0.167 HD
ENDBRANCH  32  34
ENDBRANCH  31  32
ENDBRANCH  30  31
ENDBRANCH  29  30
BRANCH  29  36
ATOM     36  C   GLU d   1      15.253  18.136  -4.617  0.00  0.00     0.163 C 
ATOM     37  O   GLU d   1      16.252  17.928  -5.289  0.00  0.00    -0.648 OA
BRANCH  36  38
ATOM     38  OXT GLU d   1      14.303  18.979  -5.089  0.00  0.00    -0.775 OA
ATOM     39  HXT GLU d   1      14.774  19.840  -5.148  0.00  0.00     0.167 HD
ENDBRANCH  36  38
ENDBRANCH  29  36
ENDBRANCH  27  29
ENDBRANCH   1  25
TORSDOF 12
ENDMDL
MODEL 8
REMARK VINA RESULT:      -7.9      2.356      4.239
REMARK  12 active torsions:
REMARK  status: ('A' for Active; 'I' for Inactive)
REMARK    1  A    between atoms: C_2  and  N_3 
REMARK    2  A    between atoms: C_9  and  C_13 
REMARK    3  A    between atoms: C_13  and  N_14 
REMARK    4  A    between atoms: N_14  and  C_18 
REMARK    5  A    between atoms: C_15  and  C_21 
REMARK       I    between atoms: C_21  and  N_23 
REMARK    6  A    between atoms: N_23  and  CA_24 
REMARK    7  A    between atoms: CA_24  and  CB_25 
REMARK    8  A    between atoms: CA_24  and  C_30 
REMARK    9  A    between atoms: CB_25  and  CG_26 
REMARK   10  A    between atoms: CG_26  and  CD_27 
REMARK   11  A    between atoms: CD_27  and  OE2_29 
REMARK   12  A    between atoms: C_30  and  OXT_32 
ROOT
ATOM      1  C   UNK d   0      20.537  20.897   7.590  0.00  0.00     0.032 A 
ATOM      2  C   UNK d   0      19.505  20.709   8.515  0.00  0.00     0.019 A 
ATOM      3  C   UNK d   0      19.567  19.660   9.443  0.00  0.00     0.030 A 
ATOM      4  C   UNK d   0      20.677  18.814   9.505  0.00  0.00     0.028 A 
ATOM      5  C   UNK d   0      21.732  19.056   8.614  0.00  0.00     0.030 A 
ATOM      6  C   UNK d   0      21.668  20.081   7.660  0.00  0.00     0.019 A 
ENDROOT
BRANCH   4   7
ATOM      7  N   UNK d   0      20.751  17.741  10.362  0.00  0.00    -0.384 N 
ATOM      8  H   UNK d   0      20.014  17.037  10.353  0.00  0.00     0.160 HD
BRANCH   7   9
ATOM      9  C   UNK d   0      21.671  17.643  11.485  0.00  0.00     0.180 C 
BRANCH   9  10
ATOM     10  C   UNK d   0      20.944  17.907  12.791  0.00  0.00     0.070 A 
ATOM     11  N   UNK d   0      19.585  17.982  12.779  0.00  0.00    -0.241 NA
ATOM     12  C   UNK d   0      18.997  18.141  13.996  0.00  0.00     0.173 A 
ATOM     13  C   UNK d   0      17.509  18.183  14.102  0.00  0.00     0.302 A 
ATOM     14  C   UNK d   0      19.712  18.239  15.185  0.00  0.00     0.164 A 
ATOM     15  N   UNK d   0      16.917  18.228  15.356  0.00  0.00    -0.179 NA
ATOM     16  O   UNK d   0      16.840  18.173  13.072  0.00  0.00    -0.263 OA
ATOM     17  C   UNK d   0      17.683  18.320  16.393  0.00  0.00     0.182 A 
ATOM     18  N   UNK d   0      19.033  18.383  16.386  0.00  0.00    -0.314 N 
ATOM     19  H   UNK d   0      19.592  18.327  17.222  0.00  0.00     0.170 HD
ATOM     20  N   UNK d   0      21.066  18.198  15.192  0.00  0.00    -0.239 NA
ATOM     21  C   UNK d   0      21.659  18.031  13.981  0.00  0.00     0.147 A 
BRANCH  17  22
ATOM     22  N   UNK d   0      17.145  18.350  17.635  0.00  0.00    -0.272 NA
ATOM     23  H   UNK d   0      16.807  19.251  17.946  0.00  0.00     0.127 HD
ATOM     24  H   UNK d   0      16.427  17.634  17.737  0.00  0.00     0.127 HD
ENDBRANCH  17  22
ENDBRANCH   9  10
ENDBRANCH   7   9
ENDBRANCH   4   7
BRANCH   1  25
ATOM     25  C   UNK d   0      20.392  21.973   6.569  0.00  0.00     0.252 C 
ATOM     26  O   UNK d   0      20.235  23.134   6.922  0.00  0.00    -0.268 OA
ATOM     27  N   GLU d   1      20.413  21.584   5.244  0.00  0.00    -0.343 N 
ATOM     28  H   GLU d   1      20.299  20.605   5.002  0.00  0.00     0.163 HD
BRANCH  27  29
ATOM     29  CA  GLU d   1      20.207  22.552   4.164  0.00  0.00     0.183 C 
BRANCH  29  30
ATOM     30  CB  GLU d   1      21.433  22.688   3.253  0.00  0.00     0.046 C 
BRANCH  30  31
ATOM     31  CG  GLU d   1      22.761  22.826   4.001  0.00  0.00     0.112 C 
BRANCH  31  32
ATOM     32  CD  GLU d   1      22.929  24.230   4.515  0.00  0.00     0.139 C 
ATOM     33  OE1 GLU d   1      23.008  24.585   5.678  0.00  0.00    -0.650 OA
BRANCH  32  34
ATOM     34  OE2 GLU d   1      22.946  25.140   3.523  0.00  0.00    -0.776 OA
ATOM     35  HE2 GLU d   1      22.038  25.099   3.155  0.00  0.00     0.167 HD
ENDBRANCH  32  34
ENDBRANCH  31  32
ENDBRANCH  30  31
ENDBRANCH  29  30
BRANCH  29  36
ATOM     36  C   GLU d   1      18.947  22.268   3.339  0.00  0.00     0.163 C 
ATOM     37  O   GLU d   1      18.646  21.210   2.807  0.00  0.00    -0.648 OA
BRANCH  36  38
ATOM     38  OXT GLU d   1      18.142  23.345   3.170  0.00  0.00    -0.775 OA
ATOM     39  HXT GLU d   1      18.608  24.054   3.668  0.00  0.00     0.167 HD
ENDBRANCH  36  38
ENDBRANCH  29  36
ENDBRANCH  27  29
ENDBRANCH   1  25
TORSDOF 12
ENDMDL
MODEL 9
REMARK VINA RESULT:      -7.9      5.257      9.133
REMARK  12 active torsions:
REMARK  status: ('A' for Active; 'I' for Inactive)
REMARK    1  A    between atoms: C_2  and  N_3 
REMARK    2  A    between atoms: C_9  and  C_13 
REMARK    3  A    between atoms: C_13  and  N_14 
REMARK    4  A    between atoms: N_14  and  C_18 
REMARK    5  A    between atoms: C_15  and  C_21 
REMARK       I    between atoms: C_21  and  N_23 
REMARK    6  A    between atoms: N_23  and  CA_24 
REMARK    7  A    between atoms: CA_24  and  CB_25 
REMARK    8  A    between atoms: CA_24  and  C_30 
REMARK    9  A    between atoms: CB_25  and  CG_26 
REMARK   10  A    between atoms: CG_26  and  CD_27 
REMARK   11  A    between atoms: CD_27  and  OE2_29 
REMARK   12  A    between atoms: C_30  and  OXT_32 
ROOT
ATOM      1  C   UNK d   0      17.456  20.495   0.265  0.00  0.00     0.032 A 
ATOM      2  C   UNK d   0      17.693  19.497   1.215  0.00  0.00     0.019 A 
ATOM      3  C   UNK d   0      18.252  19.820   2.458  0.00  0.00     0.030 A 
ATOM      4  C   UNK d   0      18.535  21.144   2.802  0.00  0.00     0.028 A 
ATOM      5  C   UNK d   0      18.231  22.141   1.864  0.00  0.00     0.030 A 
ATOM      6  C   UNK d   0      17.702  21.826   0.604  0.00  0.00     0.019 A 
ENDROOT
BRANCH   4   7
ATOM      7  N   UNK d   0      19.134  21.496   3.990  0.00  0.00    -0.384 N 
ATOM      8  H   UNK d   0      18.555  21.732   4.795  0.00  0.00     0.160 HD
BRANCH   7   9
ATOM      9  C   UNK d   0      20.545  21.816   4.139  0.00  0.00     0.180 C 
BRANCH   9  10
ATOM     10  C   UNK d   0      20.939  21.808   5.605  0.00  0.00     0.070 A 
ATOM     11  N   UNK d   0      20.227  21.033   6.469  0.00  0.00    -0.241 NA
ATOM     12  C   UNK d   0      20.684  21.012   7.750  0.00  0.00     0.173 A 
ATOM     13  C   UNK d   0      20.008  20.154   8.766  0.00  0.00     0.302 A 
ATOM     14  C   UNK d   0      21.792  21.736   8.179  0.00  0.00     0.164 A 
ATOM     15  N   UNK d   0      20.551  20.050  10.038  0.00  0.00    -0.179 NA
ATOM     16  O   UNK d   0      18.984  19.554   8.450  0.00  0.00    -0.263 OA
ATOM     17  C   UNK d   0      21.583  20.774  10.327  0.00  0.00     0.182 A 
ATOM     18  N   UNK d   0      22.202  21.646   9.501  0.00  0.00    -0.314 N 
ATOM     19  H   UNK d   0      23.076  22.093   9.726  0.00  0.00     0.170 HD
ATOM     20  N   UNK d   0      22.480  22.534   7.327  0.00  0.00    -0.239 NA
ATOM     21  C   UNK d   0      22.032  22.552   6.043  0.00  0.00     0.147 A 
BRANCH  17  22
ATOM     22  N   UNK d   0      22.152  20.688  11.553  0.00  0.00    -0.272 NA
ATOM     23  H   UNK d   0      21.934  19.854  12.081  0.00  0.00     0.127 HD
ATOM     24  H   UNK d   0      23.158  20.834  11.496  0.00  0.00     0.127 HD
ENDBRANCH  17  22
ENDBRANCH   9  10
ENDBRANCH   7   9
ENDBRANCH   4   7
BRANCH   1  25
ATOM     25  C   UNK d   0      16.937  20.097  -1.074  0.00  0.00     0.252 C 
ATOM     26  O   UNK d   0      17.344  20.663  -2.081  0.00  0.00    -0.268 OA
ATOM     27  N   GLU d   1      15.978  19.104  -1.103  0.00  0.00    -0.343 N 
ATOM     28  H   GLU d   1      15.499  18.839  -0.250  0.00  0.00     0.163 HD
BRANCH  27  29
ATOM     29  CA  GLU d   1      15.351  18.688  -2.360  0.00  0.00     0.183 C 
BRANCH  29  30
ATOM     30  CB  GLU d   1      16.087  17.520  -3.027  0.00  0.00     0.046 C 
BRANCH  30  31
ATOM     31  CG  GLU d   1      16.783  17.883  -4.341  0.00  0.00     0.112 C 
BRANCH  31  32
ATOM     32  CD  GLU d   1      18.244  17.530  -4.274  0.00  0.00     0.139 C 
ATOM     33  OE1 GLU d   1      18.821  16.658  -4.900  0.00  0.00    -0.650 OA
BRANCH  32  34
ATOM     34  OE2 GLU d   1      18.911  18.277  -3.375  0.00  0.00    -0.776 OA
ATOM     35  HE2 GLU d   1      19.817  18.334  -3.746  0.00  0.00     0.167 HD
ENDBRANCH  32  34
ENDBRANCH  31  32
ENDBRANCH  30  31
ENDBRANCH  29  30
BRANCH  29  36
ATOM     36  C   GLU d   1      13.859  18.373  -2.209  0.00  0.00     0.163 C 
ATOM     37  O   GLU d   1      13.029  19.040  -1.609  0.00  0.00    -0.648 OA
BRANCH  36  38
ATOM     38  OXT GLU d   1      13.482  17.201  -2.774  0.00  0.00    -0.775 OA
ATOM     39  HXT GLU d   1      13.914  17.227  -3.657  0.00  0.00     0.167 HD
ENDBRANCH  36  38
ENDBRANCH  29  36
ENDBRANCH  27  29
ENDBRANCH   1  25
TORSDOF 12
ENDMDL
