MODEL 1
REMARK VINA RESULT:      -8.6      0.000      0.000
REMARK  11 active torsions:
REMARK  status: ('A' for Active; 'I' for Inactive)
REMARK    1  A    between atoms: O_4  and  C_21 
REMARK    2  A    between atoms: O_4  and  C_26 
REMARK    3  A    between atoms: O_5  and  C_22 
REMARK    4  A    between atoms: O_8  and  N_12 
REMARK    5  A    between atoms: CA_16  and  N_11 
REMARK       I    between atoms: N_11  and  C_23 
REMARK    6  A    between atoms: N_12  and  C_24 
REMARK    7  A    between atoms: N_14  and  C_29 
REMARK    8  A    between atoms: CA_18  and  C_22 
REMARK    9  A    between atoms: C_19  and  C_21 
REMARK   10  A    between atoms: C_23  and  C_24 
REMARK   11  A    between atoms: C_24  and  C_25 
ROOT
ATOM      1  S   UNL d   1      35.719  -9.484   6.505  0.00  0.00    -0.136 SA
ATOM      2  O   UNL d   1      37.643  -7.862   8.790  0.00  0.00    -0.271 OA
ATOM      3  N   UNL d   1      36.823  -8.341   7.196  0.00  0.00    -0.293 N 
ATOM      4  C   UNL d   1      36.218  -9.132   7.297  0.00  0.00     0.187 A 
ATOM      5  CA  UNL d   1      36.445  -9.185   8.278  0.00  0.00     0.211 A 
ATOM      6  C   UNL d   1      37.054  -8.388   8.175  0.00  0.00     0.251 A 
ATOM      7  CA  UNL d   1      36.928  -7.904   6.303  0.00  0.00     0.117 A 
ATOM      8  C   UNL d   1      36.429  -8.256   5.511  0.00  0.00    -0.013 A 
ATOM      9  C   UNL d   1      35.825  -9.046   5.612  0.00  0.00     0.115 A 
ENDROOT
BRANCH   5  10
ATOM     10  N   UNL d   1      36.178  -9.780   9.036  0.00  0.00    -0.339 N 
ATOM     11  C   UNL d   1      36.765 -10.545   9.303  0.00  0.00     0.275 C 
ATOM     12  O   UNL d   1      37.619 -10.714   8.811  0.00  0.00    -0.266 OA
ATOM     13  H   UNL d   1      35.648  -9.674   9.340  0.00  0.00     0.163 HD
BRANCH  11  14
ATOM     14  C   UNL d   1      36.497 -11.139  10.060  0.00  0.00     0.180 C 
BRANCH  14  15
ATOM     15  N   UNL d   1      36.613 -10.829  11.004  0.00  0.00    -0.126 NA
BRANCH  15  16
ATOM     16  O   UNL d   1      37.526 -10.615  11.352  0.00  0.00    -0.261 OA
ATOM     17  C   UNL d   1      37.645 -10.337  12.305  0.00  0.00     0.240 C 
ENDBRANCH  15  16
ENDBRANCH  14  15
BRANCH  14  18
ATOM     18  C   UNL d   1      36.114 -12.044   9.875  0.00  0.00     0.102 A 
ATOM     19  N   UNL d   1      36.403 -12.667   9.148  0.00  0.00    -0.222 NA
ATOM     20  C   UNL d   1      35.842 -13.493   9.207  0.00  0.00     0.164 A 
ATOM     21  S   UNL d   1      35.207 -13.380   9.972  0.00  0.00    -0.062 SA
ATOM     22  C   UNL d   1      35.374 -12.485  10.384  0.00  0.00     0.087 A 
BRANCH  20  23
ATOM     23  N   UNL d   1      35.907 -14.291   8.608  0.00  0.00    -0.378 N 
ATOM     24  H   UNL d   1      36.030 -14.215   8.005  0.00  0.00     0.158 HD
ATOM     25  H   UNL d   1      35.824 -14.860   8.839  0.00  0.00     0.158 HD
ENDBRANCH  20  23
ENDBRANCH  14  18
ENDBRANCH  11  14
ENDBRANCH   5  10
BRANCH   7  26
ATOM     26  C   UNL d   1      37.532  -7.113   6.201  0.00  0.00     0.194 C 
ATOM     27  OXT UNL d   1      37.160  -6.187   6.268  0.00  0.00    -0.645 OA
BRANCH  26  28
ATOM     28  O   UNL d   1      38.508  -7.248   6.034  0.00  0.00    -0.772 OA
ATOM     29  H   UNL d   1      38.927  -6.934   6.367  0.00  0.00     0.167 HD
ENDBRANCH  26  28
ENDBRANCH   7  26
BRANCH   8  30
ATOM     30  C   UNL d   1      36.534  -7.818   4.618  0.00  0.00     0.216 C 
BRANCH  30  31
ATOM     31  O   UNL d   1      36.716  -8.374   3.807  0.00  0.00    -0.317 OA
BRANCH  31  32
ATOM     32  C   UNL d   1      37.105  -7.951   2.989  0.00  0.00     0.255 C 
ATOM     33  O   UNL d   1      36.775  -7.058   2.682  0.00  0.00    -0.266 OA
ATOM     34  C   UNL d   1      37.823  -8.422   2.476  0.00  0.00     0.126 C 
ENDBRANCH  31  32
ENDBRANCH  30  31
ENDBRANCH   8  30
TORSDOF 11
ENDMDL
MODEL 2
REMARK VINA RESULT:      -8.5      7.096     11.497
REMARK  11 active torsions:
REMARK  status: ('A' for Active; 'I' for Inactive)
REMARK    1  A    between atoms: O_4  and  C_21 
REMARK    2  A    between atoms: O_4  and  C_26 
REMARK    3  A    between atoms: O_5  and  C_22 
REMARK    4  A    between atoms: O_8  and  N_12 
REMARK    5  A    between atoms: CA_16  and  N_11 
REMARK       I    between atoms: N_11  and  C_23 
REMARK    6  A    between atoms: N_12  and  C_24 
REMARK    7  A    between atoms: N_14  and  C_29 
REMARK    8  A    between atoms: CA_18  and  C_22 
REMARK    9  A    between atoms: C_19  and  C_21 
REMARK   10  A    between atoms: C_23  and  C_24 
REMARK   11  A    between atoms: C_24  and  C_25 
ROOT
ATOM      1  S   UNL d   1      38.123  -8.685  -0.808  0.00  0.00    -0.136 SA
ATOM      2  O   UNL d   1      37.416  -5.575  -1.983  0.00  0.00    -0.271 OA
ATOM      3  N   UNL d   1      37.795  -6.985  -0.836  0.00  0.00    -0.293 N 
ATOM      4  C   UNL d   1      37.915  -7.852  -1.320  0.00  0.00     0.187 A 
ATOM      5  CA  UNL d   1      37.743  -7.390  -2.199  0.00  0.00     0.211 A 
ATOM      6  C   UNL d   1      37.622  -6.516  -1.712  0.00  0.00     0.251 A 
ATOM      7  CA  UNL d   1      37.883  -6.951   0.159  0.00  0.00     0.117 A 
ATOM      8  C   UNL d   1      38.091  -7.785   0.671  0.00  0.00    -0.013 A 
ATOM      9  C   UNL d   1      38.211  -8.652   0.188  0.00  0.00     0.115 A 
ENDROOT
BRANCH   5  10
ATOM     10  N   UNL d   1      37.708  -7.679  -3.156  0.00  0.00    -0.339 N 
ATOM     11  C   UNL d   1      36.847  -8.007  -3.548  0.00  0.00     0.275 C 
ATOM     12  O   UNL d   1      36.024  -8.046  -2.982  0.00  0.00    -0.266 OA
ATOM     13  H   UNL d   1      38.218  -7.654  -3.506  0.00  0.00     0.163 HD
BRANCH  11  14
ATOM     14  C   UNL d   1      36.812  -8.296  -4.504  0.00  0.00     0.180 C 
BRANCH  14  15
ATOM     15  N   UNL d   1      37.216  -9.168  -4.779  0.00  0.00    -0.126 NA
BRANCH  15  16
ATOM     16  O   UNL d   1      38.150  -9.197  -5.136  0.00  0.00    -0.261 OA
ATOM     17  C   UNL d   1      38.612 -10.075  -5.259  0.00  0.00     0.240 C 
ENDBRANCH  15  16
ENDBRANCH  14  15
BRANCH  14  18
ATOM     18  C   UNL d   1      36.372  -7.712  -5.187  0.00  0.00     0.102 A 
ATOM     19  N   UNL d   1      36.691  -6.812  -5.483  0.00  0.00    -0.222 NA
ATOM     20  C   UNL d   1      36.053  -6.469  -6.173  0.00  0.00     0.164 A 
ATOM     21  S   UNL d   1      35.340  -7.158  -6.302  0.00  0.00    -0.062 SA
ATOM     22  C   UNL d   1      35.536  -7.926  -5.694  0.00  0.00     0.087 A 
BRANCH  20  23
ATOM     23  N   UNL d   1      36.118  -5.592  -6.649  0.00  0.00    -0.378 N 
ATOM     24  H   UNL d   1      35.603  -5.308  -6.844  0.00  0.00     0.158 HD
ATOM     25  H   UNL d   1      36.672  -5.333  -6.748  0.00  0.00     0.158 HD
ENDBRANCH  20  23
ENDBRANCH  14  18
ENDBRANCH  11  14
ENDBRANCH   5  10
BRANCH   7  26
ATOM     26  C   UNL d   1      37.763  -6.084   0.643  0.00  0.00     0.194 C 
ATOM     27  OXT UNL d   1      38.549  -5.487   0.802  0.00  0.00    -0.645 OA
BRANCH  26  28
ATOM     28  O   UNL d   1      36.857  -5.814   0.968  0.00  0.00    -0.772 OA
ATOM     29  H   UNL d   1      36.568  -6.154   1.399  0.00  0.00     0.167 HD
ENDBRANCH  26  28
ENDBRANCH   7  26
BRANCH   8  30
ATOM     30  C   UNL d   1      38.179  -7.751   1.667  0.00  0.00     0.216 C 
BRANCH  30  31
ATOM     31  O   UNL d   1      37.746  -8.454   2.231  0.00  0.00    -0.317 OA
BRANCH  31  32
ATOM     32  C   UNL d   1      37.676  -8.327   3.221  0.00  0.00     0.255 C 
ATOM     33  O   UNL d   1      38.409  -7.864   3.719  0.00  0.00    -0.266 OA
ATOM     34  C   UNL d   1      36.873  -8.664   3.712  0.00  0.00     0.126 C 
ENDBRANCH  31  32
ENDBRANCH  30  31
ENDBRANCH   8  30
TORSDOF 11
ENDMDL
MODEL 3
REMARK VINA RESULT:      -8.5      2.023      3.199
REMARK  11 active torsions:
REMARK  status: ('A' for Active; 'I' for Inactive)
REMARK    1  A    between atoms: O_4  and  C_21 
REMARK    2  A    between atoms: O_4  and  C_26 
REMARK    3  A    between atoms: O_5  and  C_22 
REMARK    4  A    between atoms: O_8  and  N_12 
REMARK    5  A    between atoms: CA_16  and  N_11 
REMARK       I    between atoms: N_11  and  C_23 
REMARK    6  A    between atoms: N_12  and  C_24 
REMARK    7  A    between atoms: N_14  and  C_29 
REMARK    8  A    between atoms: CA_18  and  C_22 
REMARK    9  A    between atoms: C_19  and  C_21 
REMARK   10  A    between atoms: C_23  and  C_24 
REMARK   11  A    between atoms: C_24  and  C_25 
ROOT
ATOM      1  S   UNL d   1      36.383  -9.750   8.550  0.00  0.00    -0.136 SA
ATOM      2  O   UNL d   1      38.075  -7.770  10.734  0.00  0.00    -0.271 OA
ATOM      3  N   UNL d   1      37.316  -8.431   9.174  0.00  0.00    -0.293 N 
ATOM      4  C   UNL d   1      36.834  -9.295   9.318  0.00  0.00     0.187 A 
ATOM      5  CA  UNL d   1      37.076  -9.272  10.296  0.00  0.00     0.211 A 
ATOM      6  C   UNL d   1      37.562  -8.401  10.151  0.00  0.00     0.251 A 
ATOM      7  CA  UNL d   1      37.347  -8.021   8.263  0.00  0.00     0.117 A 
ATOM      8  C   UNL d   1      36.896  -8.475   7.495  0.00  0.00    -0.013 A 
ATOM      9  C   UNL d   1      36.414  -9.340   7.638  0.00  0.00     0.115 A 
ENDROOT
BRANCH   5  10
ATOM     10  N   UNL d   1      36.906  -9.867  11.083  0.00  0.00    -0.339 N 
ATOM     11  C   UNL d   1      37.458 -10.691  11.216  0.00  0.00     0.275 C 
ATOM     12  O   UNL d   1      38.180 -10.919  10.562  0.00  0.00    -0.266 OA
ATOM     13  H   UNL d   1      36.459  -9.725  11.487  0.00  0.00     0.163 HD
BRANCH  11  14
ATOM     14  C   UNL d   1      37.288 -11.285  12.001  0.00  0.00     0.180 C 
BRANCH  14  15
ATOM     15  N   UNL d   1      36.452 -11.834  12.041  0.00  0.00    -0.126 NA
BRANCH  15  16
ATOM     16  O   UNL d   1      36.311 -12.578  11.389  0.00  0.00    -0.261 OA
ATOM     17  C   UNL d   1      35.450 -13.086  11.387  0.00  0.00     0.240 C 
ENDBRANCH  15  16
ENDBRANCH  14  15
BRANCH  14  18
ATOM     18  C   UNL d   1      37.952 -11.330  12.748  0.00  0.00     0.102 A 
ATOM     19  N   UNL d   1      38.188 -10.584  13.369  0.00  0.00    -0.222 NA
ATOM     20  C   UNL d   1      38.878 -10.921  14.010  0.00  0.00     0.164 A 
ATOM     21  S   UNL d   1      39.068 -11.877  13.783  0.00  0.00    -0.062 SA
ATOM     22  C   UNL d   1      38.496 -12.130  13.004  0.00  0.00     0.087 A 
BRANCH  20  23
ATOM     23  N   UNL d   1      39.303 -10.396  14.747  0.00  0.00    -0.378 N 
ATOM     24  H   UNL d   1      39.746  -9.982  14.615  0.00  0.00     0.158 HD
ATOM     25  H   UNL d   1      39.124 -10.483  15.333  0.00  0.00     0.158 HD
ENDBRANCH  20  23
ENDBRANCH  14  18
ENDBRANCH  11  14
ENDBRANCH   5  10
BRANCH   7  26
ATOM     26  C   UNL d   1      37.829  -7.157   8.119  0.00  0.00     0.194 C 
ATOM     27  OXT UNL d   1      38.772  -7.159   7.788  0.00  0.00    -0.645 OA
BRANCH  26  28
ATOM     28  O   UNL d   1      37.367  -6.290   8.307  0.00  0.00    -0.772 OA
ATOM     29  H   UNL d   1      37.618  -5.757   8.114  0.00  0.00     0.167 HD
ENDBRANCH  26  28
ENDBRANCH   7  26
BRANCH   8  30
ATOM     30  C   UNL d   1      36.927  -8.066   6.583  0.00  0.00     0.216 C 
BRANCH  30  31
ATOM     31  O   UNL d   1      36.197  -8.254   5.925  0.00  0.00    -0.317 OA
BRANCH  31  32
ATOM     32  C   UNL d   1      36.207  -7.812   5.028  0.00  0.00     0.255 C 
ATOM     33  O   UNL d   1      35.987  -6.839   4.948  0.00  0.00    -0.266 OA
ATOM     34  C   UNL d   1      36.435  -8.342   4.212  0.00  0.00     0.126 C 
ENDBRANCH  31  32
ENDBRANCH  30  31
ENDBRANCH   8  30
TORSDOF 11
ENDMDL
MODEL 4
REMARK VINA RESULT:      -8.4      1.640      2.009
REMARK  11 active torsions:
REMARK  status: ('A' for Active; 'I' for Inactive)
REMARK    1  A    between atoms: O_4  and  C_21 
REMARK    2  A    between atoms: O_4  and  C_26 
REMARK    3  A    between atoms: O_5  and  C_22 
REMARK    4  A    between atoms: O_8  and  N_12 
REMARK    5  A    between atoms: CA_16  and  N_11 
REMARK       I    between atoms: N_11  and  C_23 
REMARK    6  A    between atoms: N_12  and  C_24 
REMARK    7  A    between atoms: N_14  and  C_29 
REMARK    8  A    between atoms: CA_18  and  C_22 
REMARK    9  A    between atoms: C_19  and  C_21 
REMARK   10  A    between atoms: C_23  and  C_24 
REMARK   11  A    between atoms: C_24  and  C_25 
ROOT
ATOM      1  S   UNL d   1      36.650  -9.132   7.594  0.00  0.00    -0.136 SA
ATOM      2  O   UNL d   1      38.651  -6.804   9.055  0.00  0.00    -0.271 OA
ATOM      3  N   UNL d   1      37.584  -7.691   7.821  0.00  0.00    -0.293 N 
ATOM      4  C   UNL d   1      37.237  -8.562   8.169  0.00  0.00     0.187 A 
ATOM      5  CA  UNL d   1      37.717  -8.409   9.042  0.00  0.00     0.211 A 
ATOM      6  C   UNL d   1      38.067  -7.531   8.691  0.00  0.00     0.251 A 
ATOM      7  CA  UNL d   1      37.343  -7.390   6.898  0.00  0.00     0.117 A 
ATOM      8  C   UNL d   1      36.756  -7.960   6.324  0.00  0.00    -0.013 A 
ATOM      9  C   UNL d   1      36.409  -8.831   6.672  0.00  0.00     0.115 A 
ENDROOT
BRANCH   5  10
ATOM     10  N   UNL d   1      37.809  -8.917   9.899  0.00  0.00    -0.339 N 
ATOM     11  C   UNL d   1      37.140  -8.786  10.632  0.00  0.00     0.275 C 
ATOM     12  O   UNL d   1      36.381  -8.147  10.507  0.00  0.00    -0.266 OA
ATOM     13  H   UNL d   1      38.280  -9.312   9.976  0.00  0.00     0.163 HD
BRANCH  11  14
ATOM     14  C   UNL d   1      37.232  -9.293  11.488  0.00  0.00     0.180 C 
BRANCH  14  15
ATOM     15  N   UNL d   1      37.418  -8.805  12.341  0.00  0.00    -0.126 NA
BRANCH  15  16
ATOM     16  O   UNL d   1      38.287  -8.328  12.464  0.00  0.00    -0.261 OA
ATOM     17  C   UNL d   1      38.445  -7.778  13.285  0.00  0.00     0.240 C 
ENDBRANCH  15  16
ENDBRANCH  14  15
BRANCH  14  18
ATOM     18  C   UNL d   1      37.137 -10.289  11.493  0.00  0.00     0.102 A 
ATOM     19  N   UNL d   1      36.327 -10.803  11.210  0.00  0.00    -0.222 NA
ATOM     20  C   UNL d   1      36.523 -11.777  11.323  0.00  0.00     0.164 A 
ATOM     21  S   UNL d   1      37.456 -11.864  11.675  0.00  0.00    -0.062 SA
ATOM     22  C   UNL d   1      37.835 -10.946  11.780  0.00  0.00     0.087 A 
BRANCH  20  23
ATOM     23  N   UNL d   1      35.898 -12.530  11.120  0.00  0.00    -0.378 N 
ATOM     24  H   UNL d   1      36.123 -13.078  10.938  0.00  0.00     0.158 HD
ATOM     25  H   UNL d   1      35.286 -12.449  11.175  0.00  0.00     0.158 HD
ENDBRANCH  20  23
ENDBRANCH  14  18
ENDBRANCH  11  14
ENDBRANCH   5  10
BRANCH   7  26
ATOM     26  C   UNL d   1      37.690  -6.519   6.550  0.00  0.00     0.194 C 
ATOM     27  OXT UNL d   1      37.116  -5.701   6.588  0.00  0.00    -0.645 OA
BRANCH  26  28
ATOM     28  O   UNL d   1      38.611  -6.466   6.164  0.00  0.00    -0.772 OA
ATOM     29  H   UNL d   1      38.867  -5.914   6.046  0.00  0.00     0.167 HD
ENDBRANCH  26  28
ENDBRANCH   7  26
BRANCH   8  30
ATOM     30  C   UNL d   1      36.516  -7.659   5.401  0.00  0.00     0.216 C 
BRANCH  30  31
ATOM     31  O   UNL d   1      36.520  -8.313   4.644  0.00  0.00    -0.317 OA
BRANCH  31  32
ATOM     32  C   UNL d   1      36.719  -8.001   3.715  0.00  0.00     0.255 C 
ATOM     33  O   UNL d   1      36.335  -7.139   3.384  0.00  0.00    -0.266 OA
ATOM     34  C   UNL d   1      37.302  -8.551   3.117  0.00  0.00     0.126 C 
ENDBRANCH  31  32
ENDBRANCH  30  31
ENDBRANCH   8  30
TORSDOF 11
ENDMDL
MODEL 5
REMARK VINA RESULT:      -8.4      2.772      3.708
REMARK  11 active torsions:
REMARK  status: ('A' for Active; 'I' for Inactive)
REMARK    1  A    between atoms: O_4  and  C_21 
REMARK    2  A    between atoms: O_4  and  C_26 
REMARK    3  A    between atoms: O_5  and  C_22 
REMARK    4  A    between atoms: O_8  and  N_12 
REMARK    5  A    between atoms: CA_16  and  N_11 
REMARK       I    between atoms: N_11  and  C_23 
REMARK    6  A    between atoms: N_12  and  C_24 
REMARK    7  A    between atoms: N_14  and  C_29 
REMARK    8  A    between atoms: CA_18  and  C_22 
REMARK    9  A    between atoms: C_19  and  C_21 
REMARK   10  A    between atoms: C_23  and  C_24 
REMARK   11  A    between atoms: C_24  and  C_25 
ROOT
ATOM      1  S   UNL d   1      36.877  -9.246   9.397  0.00  0.00    -0.136 SA
ATOM      2  O   UNL d   1      37.710  -9.321  12.691  0.00  0.00    -0.271 OA
ATOM      3  N   UNL d   1      37.552  -8.781  10.922  0.00  0.00    -0.293 N 
ATOM      4  C   UNL d   1      37.030  -9.429  10.368  0.00  0.00     0.187 A 
ATOM      5  CA  UNL d   1      36.902 -10.021  11.173  0.00  0.00     0.211 A 
ATOM      6  C   UNL d   1      37.428  -9.368  11.732  0.00  0.00     0.251 A 
ATOM      7  CA  UNL d   1      37.920  -7.950  10.506  0.00  0.00     0.117 A 
ATOM      8  C   UNL d   1      37.767  -7.767   9.535  0.00  0.00    -0.013 A 
ATOM      9  C   UNL d   1      37.245  -8.415   8.980  0.00  0.00     0.115 A 
ENDROOT
BRANCH   5  10
ATOM     10  N   UNL d   1      36.445 -10.894  11.346  0.00  0.00    -0.339 N 
ATOM     11  C   UNL d   1      36.939 -11.754  11.211  0.00  0.00     0.275 C 
ATOM     12  O   UNL d   1      37.891 -11.739  10.903  0.00  0.00    -0.266 OA
ATOM     13  H   UNL d   1      35.855 -10.902  11.537  0.00  0.00     0.163 HD
BRANCH  11  14
ATOM     14  C   UNL d   1      36.482 -12.625  11.383  0.00  0.00     0.180 C 
BRANCH  14  15
ATOM     15  N   UNL d   1      36.532 -13.046  12.290  0.00  0.00    -0.126 NA
BRANCH  15  16
ATOM     16  O   UNL d   1      37.339 -13.574  12.552  0.00  0.00    -0.261 OA
ATOM     17  C   UNL d   1      37.346 -14.083  13.412  0.00  0.00     0.240 C 
ENDBRANCH  15  16
ENDBRANCH  14  15
BRANCH  14  18
ATOM     18  C   UNL d   1      35.974 -13.078  10.650  0.00  0.00     0.102 A 
ATOM     19  N   UNL d   1      36.351 -13.377   9.773  0.00  0.00    -0.222 NA
ATOM     20  C   UNL d   1      35.611 -13.796   9.245  0.00  0.00     0.164 A 
ATOM     21  S   UNL d   1      34.778 -13.754   9.797  0.00  0.00    -0.062 SA
ATOM     22  C   UNL d   1      35.001 -13.311  10.664  0.00  0.00     0.087 A 
BRANCH  20  23
ATOM     23  N   UNL d   1      35.692 -14.186   8.328  0.00  0.00    -0.378 N 
ATOM     24  H   UNL d   1      36.247 -14.355   8.113  0.00  0.00     0.158 HD
ATOM     25  H   UNL d   1      35.187 -14.258   7.977  0.00  0.00     0.158 HD
ENDBRANCH  20  23
ENDBRANCH  14  18
ENDBRANCH  11  14
ENDBRANCH   5  10
BRANCH   7  26
ATOM     26  C   UNL d   1      38.442  -7.301  11.060  0.00  0.00     0.194 C 
ATOM     27  OXT UNL d   1      39.440  -7.286  11.004  0.00  0.00    -0.645 OA
BRANCH  26  28
ATOM     28  O   UNL d   1      37.965  -6.669  11.671  0.00  0.00    -0.772 OA
ATOM     29  H   UNL d   1      37.588  -6.888  12.111  0.00  0.00     0.167 HD
ENDBRANCH  26  28
ENDBRANCH   7  26
BRANCH   8  30
ATOM     30  C   UNL d   1      38.136  -6.936   9.118  0.00  0.00     0.216 C 
BRANCH  30  31
ATOM     31  O   UNL d   1      37.932  -6.723   8.162  0.00  0.00    -0.317 OA
BRANCH  31  32
ATOM     32  C   UNL d   1      38.165  -5.825   7.790  0.00  0.00     0.255 C 
ATOM     33  O   UNL d   1      39.066  -5.429   7.965  0.00  0.00    -0.266 OA
ATOM     34  C   UNL d   1      37.496  -5.322   7.242  0.00  0.00     0.126 C 
ENDBRANCH  31  32
ENDBRANCH  30  31
ENDBRANCH   8  30
TORSDOF 11
ENDMDL
MODEL 6
REMARK VINA RESULT:      -8.3      2.552      3.875
REMARK  11 active torsions:
REMARK  status: ('A' for Active; 'I' for Inactive)
REMARK    1  A    between atoms: O_4  and  C_21 
REMARK    2  A    between atoms: O_4  and  C_26 
REMARK    3  A    between atoms: O_5  and  C_22 
REMARK    4  A    between atoms: O_8  and  N_12 
REMARK    5  A    between atoms: CA_16  and  N_11 
REMARK       I    between atoms: N_11  and  C_23 
REMARK    6  A    between atoms: N_12  and  C_24 
REMARK    7  A    between atoms: N_14  and  C_29 
REMARK    8  A    between atoms: CA_18  and  C_22 
REMARK    9  A    between atoms: C_19  and  C_21 
REMARK   10  A    between atoms: C_23  and  C_24 
REMARK   11  A    between atoms: C_24  and  C_25 
ROOT
ATOM      1  S   UNL d   1      36.814  -9.560   9.033  0.00  0.00    -0.136 SA
ATOM      2  O   UNL d   1      37.491  -9.230  12.347  0.00  0.00    -0.271 OA
ATOM      3  N   UNL d   1      37.385  -8.892  10.525  0.00  0.00    -0.293 N 
ATOM      4  C   UNL d   1      36.931  -9.628  10.024  0.00  0.00     0.187 A 
ATOM      5  CA  UNL d   1      36.801 -10.139  10.883  0.00  0.00     0.211 A 
ATOM      6  C   UNL d   1      37.259  -9.396  11.389  0.00  0.00     0.251 A 
ATOM      7  CA  UNL d   1      37.723  -8.088  10.036  0.00  0.00     0.117 A 
ATOM      8  C   UNL d   1      37.606  -8.020   9.045  0.00  0.00    -0.013 A 
ATOM      9  C   UNL d   1      37.152  -8.756   8.543  0.00  0.00     0.115 A 
ENDROOT
BRANCH   5  10
ATOM     10  N   UNL d   1      36.389 -11.016  11.131  0.00  0.00    -0.339 N 
ATOM     11  C   UNL d   1      36.913 -11.862  11.028  0.00  0.00     0.275 C 
ATOM     12  O   UNL d   1      37.850 -11.829  10.678  0.00  0.00    -0.266 OA
ATOM     13  H   UNL d   1      35.809 -11.035  11.348  0.00  0.00     0.163 HD
BRANCH  11  14
ATOM     14  C   UNL d   1      36.502 -12.738  11.276  0.00  0.00     0.180 C 
BRANCH  14  15
ATOM     15  N   UNL d   1      35.850 -13.177  10.657  0.00  0.00    -0.126 NA
BRANCH  15  16
ATOM     16  O   UNL d   1      34.867 -13.050  10.793  0.00  0.00    -0.261 OA
ATOM     17  C   UNL d   1      34.215 -13.556  10.230  0.00  0.00     0.240 C 
ENDBRANCH  15  16
ENDBRANCH  14  15
BRANCH  14  18
ATOM     18  C   UNL d   1      36.741 -13.177  12.142  0.00  0.00     0.102 A 
ATOM     19  N   UNL d   1      36.554 -12.814  13.055  0.00  0.00    -0.222 NA
ATOM     20  C   UNL d   1      36.907 -13.468  13.726  0.00  0.00     0.164 A 
ATOM     21  S   UNL d   1      37.311 -14.234  13.226  0.00  0.00    -0.062 SA
ATOM     22  C   UNL d   1      37.209 -14.055  12.248  0.00  0.00     0.087 A 
BRANCH  20  23
ATOM     23  N   UNL d   1      36.862 -13.371  14.720  0.00  0.00    -0.378 N 
ATOM     24  H   UNL d   1      36.396 -13.632  15.035  0.00  0.00     0.158 HD
ATOM     25  H   UNL d   1      37.299 -13.051  15.020  0.00  0.00     0.158 HD
ENDBRANCH  20  23
ENDBRANCH  14  18
ENDBRANCH  11  14
ENDBRANCH   5  10
BRANCH   7  26
ATOM     26  C   UNL d   1      38.177  -7.352  10.537  0.00  0.00     0.194 C 
ATOM     27  OXT UNL d   1      39.170  -7.247  10.481  0.00  0.00    -0.645 OA
BRANCH  26  28
ATOM     28  O   UNL d   1      37.639  -6.720  11.095  0.00  0.00    -0.772 OA
ATOM     29  H   UNL d   1      37.562  -6.829  11.700  0.00  0.00     0.167 HD
ENDBRANCH  26  28
ENDBRANCH   7  26
BRANCH   8  30
ATOM     30  C   UNL d   1      37.943  -7.216   8.556  0.00  0.00     0.216 C 
BRANCH  30  31
ATOM     31  O   UNL d   1      37.578  -6.990   7.653  0.00  0.00    -0.317 OA
BRANCH  31  32
ATOM     32  C   UNL d   1      37.943  -6.209   7.146  0.00  0.00     0.255 C 
ATOM     33  O   UNL d   1      38.692  -6.340   6.497  0.00  0.00    -0.266 OA
ATOM     34  C   UNL d   1      37.559  -5.297   7.289  0.00  0.00     0.126 C 
ENDBRANCH  31  32
ENDBRANCH  30  31
ENDBRANCH   8  30
TORSDOF 11
ENDMDL
MODEL 7
REMARK VINA RESULT:      -8.2      3.477      5.586
REMARK  11 active torsions:
REMARK  status: ('A' for Active; 'I' for Inactive)
REMARK    1  A    between atoms: O_4  and  C_21 
REMARK    2  A    between atoms: O_4  and  C_26 
REMARK    3  A    between atoms: O_5  and  C_22 
REMARK    4  A    between atoms: O_8  and  N_12 
REMARK    5  A    between atoms: CA_16  and  N_11 
REMARK       I    between atoms: N_11  and  C_23 
REMARK    6  A    between atoms: N_12  and  C_24 
REMARK    7  A    between atoms: N_14  and  C_29 
REMARK    8  A    between atoms: CA_18  and  C_22 
REMARK    9  A    between atoms: C_19  and  C_21 
REMARK   10  A    between atoms: C_23  and  C_24 
REMARK   11  A    between atoms: C_24  and  C_25 
ROOT
ATOM      1  S   UNL d   1      37.155  -9.959  11.122  0.00  0.00    -0.136 SA
ATOM      2  O   UNL d   1      38.570  -8.928  14.035  0.00  0.00    -0.271 OA
ATOM      3  N   UNL d   1      37.972  -8.961  12.278  0.00  0.00    -0.293 N 
ATOM      4  C   UNL d   1      37.520  -9.822  12.042  0.00  0.00     0.187 A 
ATOM      5  CA  UNL d   1      37.682 -10.166  12.976  0.00  0.00     0.211 A 
ATOM      6  C   UNL d   1      38.136  -9.299  13.214  0.00  0.00     0.251 A 
ATOM      7  CA  UNL d   1      38.057  -8.237  11.594  0.00  0.00     0.117 A 
ATOM      8  C   UNL d   1      37.692  -8.374  10.673  0.00  0.00    -0.013 A 
ATOM      9  C   UNL d   1      37.241  -9.235  10.437  0.00  0.00     0.115 A 
ENDROOT
BRANCH   5  10
ATOM     10  N   UNL d   1      37.476 -11.016  13.463  0.00  0.00    -0.339 N 
ATOM     11  C   UNL d   1      38.150 -11.755  13.486  0.00  0.00     0.275 C 
ATOM     12  O   UNL d   1      39.029 -11.644  13.023  0.00  0.00    -0.266 OA
ATOM     13  H   UNL d   1      36.931 -11.084  13.750  0.00  0.00     0.163 HD
BRANCH  11  14
ATOM     14  C   UNL d   1      37.945 -12.603  13.973  0.00  0.00     0.180 C 
BRANCH  14  15
ATOM     15  N   UNL d   1      37.284 -13.251  13.592  0.00  0.00    -0.126 NA
BRANCH  15  16
ATOM     16  O   UNL d   1      37.480 -13.716  12.729  0.00  0.00    -0.261 OA
ATOM     17  C   UNL d   1      36.737 -14.131  12.205  0.00  0.00     0.240 C 
ENDBRANCH  15  16
ENDBRANCH  14  15
BRANCH  14  18
ATOM     18  C   UNL d   1      38.399 -12.805  14.841  0.00  0.00     0.102 A 
ATOM     19  N   UNL d   1      38.067 -12.554  15.750  0.00  0.00    -0.222 NA
ATOM     20  C   UNL d   1      38.727 -12.887  16.424  0.00  0.00     0.164 A 
ATOM     21  S   UNL d   1      39.467 -13.345  15.929  0.00  0.00    -0.062 SA
ATOM     22  C   UNL d   1      39.264 -13.295  14.952  0.00  0.00     0.087 A 
BRANCH  20  23
ATOM     23  N   UNL d   1      38.659 -12.781  17.415  0.00  0.00    -0.378 N 
ATOM     24  H   UNL d   1      38.856 -12.258  17.684  0.00  0.00     0.158 HD
ATOM     25  H   UNL d   1      38.419 -13.237  17.760  0.00  0.00     0.158 HD
ENDBRANCH  20  23
ENDBRANCH  14  18
ENDBRANCH  11  14
ENDBRANCH   5  10
BRANCH   7  26
ATOM     26  C   UNL d   1      38.508  -7.376  11.829  0.00  0.00     0.194 C 
ATOM     27  OXT UNL d   1      37.986  -6.639  12.257  0.00  0.00    -0.645 OA
BRANCH  26  28
ATOM     28  O   UNL d   1      39.482  -7.253  11.638  0.00  0.00    -0.772 OA
ATOM     29  H   UNL d   1      39.704  -6.689  11.511  0.00  0.00     0.167 HD
ENDBRANCH  26  28
ENDBRANCH   7  26
BRANCH   8  30
ATOM     30  C   UNL d   1      37.777  -7.651   9.988  0.00  0.00     0.216 C 
BRANCH  30  31
ATOM     31  O   UNL d   1      37.900  -7.886   9.024  0.00  0.00    -0.317 OA
BRANCH  31  32
ATOM     32  C   UNL d   1      38.129  -7.174   8.360  0.00  0.00     0.255 C 
ATOM     33  O   UNL d   1      38.683  -6.390   8.640  0.00  0.00    -0.266 OA
ATOM     34  C   UNL d   1      37.804  -7.247   7.417  0.00  0.00     0.126 C 
ENDBRANCH  31  32
ENDBRANCH  30  31
ENDBRANCH   8  30
TORSDOF 11
ENDMDL
MODEL 8
REMARK VINA RESULT:      -8.2      6.554      9.981
REMARK  11 active torsions:
REMARK  status: ('A' for Active; 'I' for Inactive)
REMARK    1  A    between atoms: O_4  and  C_21 
REMARK    2  A    between atoms: O_4  and  C_26 
REMARK    3  A    between atoms: O_5  and  C_22 
REMARK    4  A    between atoms: O_8  and  N_12 
REMARK    5  A    between atoms: CA_16  and  N_11 
REMARK       I    between atoms: N_11  and  C_23 
REMARK    6  A    between atoms: N_12  and  C_24 
REMARK    7  A    between atoms: N_14  and  C_29 
REMARK    8  A    between atoms: CA_18  and  C_22 
REMARK    9  A    between atoms: C_19  and  C_21 
REMARK   10  A    between atoms: C_23  and  C_24 
REMARK   11  A    between atoms: C_24  and  C_25 
ROOT
ATOM      1  S   UNL d   1      36.125  -8.736  -2.015  0.00  0.00    -0.136 SA
ATOM      2  O   UNL d   1      38.138  -6.143  -2.895  0.00  0.00    -0.271 OA
ATOM      3  N   UNL d   1      36.799  -7.428  -2.928  0.00  0.00    -0.293 N 
ATOM      4  C   UNL d   1      36.801  -8.006  -2.112  0.00  0.00     0.187 A 
ATOM      5  CA  UNL d   1      37.590  -7.495  -1.747  0.00  0.00     0.211 A 
ATOM      6  C   UNL d   1      37.588  -6.912  -2.570  0.00  0.00     0.251 A 
ATOM      7  CA  UNL d   1      36.121  -7.580  -3.647  0.00  0.00     0.117 A 
ATOM      8  C   UNL d   1      35.445  -8.310  -3.550  0.00  0.00    -0.013 A 
ATOM      9  C   UNL d   1      35.447  -8.888  -2.734  0.00  0.00     0.115 A 
ENDROOT
BRANCH   5  10
ATOM     10  N   UNL d   1      38.143  -7.545  -0.915  0.00  0.00    -0.339 N 
ATOM     11  C   UNL d   1      37.878  -7.020  -0.106  0.00  0.00     0.275 C 
ATOM     12  O   UNL d   1      37.059  -6.446  -0.129  0.00  0.00    -0.266 OA
ATOM     13  H   UNL d   1      38.650  -7.901  -0.902  0.00  0.00     0.163 HD
BRANCH  11  14
ATOM     14  C   UNL d   1      38.431  -7.070   0.725  0.00  0.00     0.180 C 
BRANCH  14  15
ATOM     15  N   UNL d   1      39.336  -6.643   0.751  0.00  0.00    -0.126 NA
BRANCH  15  16
ATOM     16  O   UNL d   1      39.418  -5.647   0.776  0.00  0.00    -0.261 OA
ATOM     17  C   UNL d   1      40.160  -5.194   0.283  0.00  0.00     0.240 C 
ENDBRANCH  15  16
ENDBRANCH  14  15
BRANCH  14  18
ATOM     18  C   UNL d   1      38.081  -7.547   1.532  0.00  0.00     0.102 A 
ATOM     19  N   UNL d   1      37.409  -7.188   2.180  0.00  0.00    -0.222 NA
ATOM     20  C   UNL d   1      37.253  -7.885   2.881  0.00  0.00     0.164 A 
ATOM     21  S   UNL d   1      37.829  -8.673   2.665  0.00  0.00    -0.062 SA
ATOM     22  C   UNL d   1      38.340  -8.465   1.832  0.00  0.00     0.087 A 
BRANCH  20  23
ATOM     23  N   UNL d   1      36.632  -7.805   3.660  0.00  0.00    -0.378 N 
ATOM     24  H   UNL d   1      36.021  -7.759   3.564  0.00  0.00     0.158 HD
ATOM     25  H   UNL d   1      36.857  -7.802   4.237  0.00  0.00     0.158 HD
ENDBRANCH  20  23
ENDBRANCH  14  18
ENDBRANCH  11  14
ENDBRANCH   5  10
BRANCH   7  26
ATOM     26  C   UNL d   1      36.119  -7.002  -4.463  0.00  0.00     0.194 C 
ATOM     27  OXT UNL d   1      36.558  -7.322  -5.303  0.00  0.00    -0.645 OA
BRANCH  26  28
ATOM     28  O   UNL d   1      35.678  -6.105  -4.439  0.00  0.00    -0.772 OA
ATOM     29  H   UNL d   1      35.290  -5.962  -3.977  0.00  0.00     0.167 HD
ENDBRANCH  26  28
ENDBRANCH   7  26
BRANCH   8  30
ATOM     30  C   UNL d   1      34.766  -8.463  -4.269  0.00  0.00     0.216 C 
BRANCH  30  31
ATOM     31  O   UNL d   1      33.847  -8.776  -4.030  0.00  0.00    -0.317 OA
BRANCH  31  32
ATOM     32  C   UNL d   1      33.055  -8.433  -4.537  0.00  0.00     0.255 C 
ATOM     33  O   UNL d   1      32.476  -7.722  -4.138  0.00  0.00    -0.266 OA
ATOM     34  C   UNL d   1      32.843  -8.803  -5.441  0.00  0.00     0.126 C 
ENDBRANCH  31  32
ENDBRANCH  30  31
ENDBRANCH   8  30
TORSDOF 11
ENDMDL
MODEL 9
REMARK VINA RESULT:      -8.2      2.075      6.846
REMARK  11 active torsions:
REMARK  status: ('A' for Active; 'I' for Inactive)
REMARK    1  A    between atoms: O_4  and  C_21 
REMARK    2  A    between atoms: O_4  and  C_26 
REMARK    3  A    between atoms: O_5  and  C_22 
REMARK    4  A    between atoms: O_8  and  N_12 
REMARK    5  A    between atoms: CA_16  and  N_11 
REMARK       I    between atoms: N_11  and  C_23 
REMARK    6  A    between atoms: N_12  and  C_24 
REMARK    7  A    between atoms: N_14  and  C_29 
REMARK    8  A    between atoms: CA_18  and  C_22 
REMARK    9  A    between atoms: C_19  and  C_21 
REMARK   10  A    between atoms: C_23  and  C_24 
REMARK   11  A    between atoms: C_24  and  C_25 
ROOT
ATOM      1  S   UNL d   1      37.077  -9.114   9.863  0.00  0.00    -0.136 SA
ATOM      2  O   UNL d   1      35.636 -10.681   7.213  0.00  0.00    -0.271 OA
ATOM      3  N   UNL d   1      36.371 -10.358   8.887  0.00  0.00    -0.293 N 
ATOM      4  C   UNL d   1      36.665  -9.409   9.001  0.00  0.00     0.187 A 
ATOM      5  CA  UNL d   1      36.357  -9.197   8.065  0.00  0.00     0.211 A 
ATOM      6  C   UNL d   1      36.061 -10.154   7.950  0.00  0.00     0.251 A 
ATOM      7  CA  UNL d   1      36.490 -11.012   9.634  0.00  0.00     0.117 A 
ATOM      8  C   UNL d   1      36.903 -10.716  10.496  0.00  0.00    -0.013 A 
ATOM      9  C   UNL d   1      37.196  -9.767  10.610  0.00  0.00     0.115 A 
ENDROOT
BRANCH   5  10
ATOM     10  N   UNL d   1      36.348  -8.378   7.490  0.00  0.00    -0.339 N 
ATOM     11  C   UNL d   1      37.179  -8.096   7.009  0.00  0.00     0.275 C 
ATOM     12  O   UNL d   1      38.018  -8.633   7.104  0.00  0.00    -0.266 OA
ATOM     13  H   UNL d   1      35.828  -8.046   7.432  0.00  0.00     0.163 HD
BRANCH  11  14
ATOM     14  C   UNL d   1      37.171  -7.278   6.435  0.00  0.00     0.180 C 
BRANCH  14  15
ATOM     15  N   UNL d   1      36.825  -7.328   5.498  0.00  0.00    -0.126 NA
BRANCH  15  16
ATOM     16  O   UNL d   1      37.357  -7.796   4.793  0.00  0.00    -0.261 OA
ATOM     17  C   UNL d   1      36.930  -8.039   3.922  0.00  0.00     0.240 C 
ENDBRANCH  15  16
ENDBRANCH  14  15
BRANCH  14  18
ATOM     18  C   UNL d   1      37.508  -6.409   6.797  0.00  0.00     0.102 A 
ATOM     19  N   UNL d   1      36.990  -5.555   6.852  0.00  0.00    -0.222 NA
ATOM     20  C   UNL d   1      37.584  -4.858   7.256  0.00  0.00     0.164 A 
ATOM     21  S   UNL d   1      38.469  -5.282   7.449  0.00  0.00    -0.062 SA
ATOM     22  C   UNL d   1      38.423  -6.240   7.166  0.00  0.00     0.087 A 
BRANCH  20  23
ATOM     23  N   UNL d   1      37.335  -3.907   7.434  0.00  0.00    -0.378 N 
ATOM     24  H   UNL d   1      37.218  -3.524   6.960  0.00  0.00     0.158 HD
ATOM     25  H   UNL d   1      37.298  -3.700   8.017  0.00  0.00     0.158 HD
ENDBRANCH  20  23
ENDBRANCH  14  18
ENDBRANCH  11  14
ENDBRANCH   5  10
BRANCH   7  26
ATOM     26  C   UNL d   1      36.197 -11.961   9.520  0.00  0.00     0.194 C 
ATOM     27  OXT UNL d   1      35.275 -12.236   9.795  0.00  0.00    -0.645 OA
BRANCH  26  28
ATOM     28  O   UNL d   1      36.825 -12.635   9.131  0.00  0.00    -0.772 OA
ATOM     29  H   UNL d   1      37.238 -12.920   9.495  0.00  0.00     0.167 HD
ENDBRANCH  26  28
ENDBRANCH   7  26
BRANCH   8  30
ATOM     30  C   UNL d   1      37.022 -11.370  11.243  0.00  0.00     0.216 C 
BRANCH  30  31
ATOM     31  O   UNL d   1      37.840 -11.330  11.817  0.00  0.00    -0.317 OA
BRANCH  31  32
ATOM     32  C   UNL d   1      37.951 -11.973  12.575  0.00  0.00     0.255 C 
ATOM     33  O   UNL d   1      37.196 -12.576  12.834  0.00  0.00    -0.266 OA
ATOM     34  C   UNL d   1      38.817 -12.013  13.074  0.00  0.00     0.126 C 
ENDBRANCH  31  32
ENDBRANCH  30  31
ENDBRANCH   8  30
TORSDOF 11
ENDMDL
