REMARK  11 active torsions:
REMARK  status: ('A' for Active; 'I' for Inactive)
REMARK    1  A    between atoms: O_4  and  C_21 
REMARK    2  A    between atoms: O_4  and  C_26 
REMARK    3  A    between atoms: O_5  and  C_22 
REMARK    4  A    between atoms: O_8  and  N_12 
REMARK    5  A    between atoms: CA_16  and  N_11 
REMARK       I    between atoms: N_11  and  C_23 
REMARK    6  A    between atoms: N_12  and  C_24 
REMARK    7  A    between atoms: N_14  and  C_29 
REMARK    8  A    between atoms: CA_18  and  C_22 
REMARK    9  A    between atoms: C_19  and  C_21 
REMARK   10  A    between atoms: C_23  and  C_24 
REMARK   11  A    between atoms: C_24  and  C_25 
ROOT
ATOM      1  S   UNL d   1       6.330  -0.634   0.000  0.00  0.00    -0.136 SA
ATOM      2  O   UNL d   1       8.910   1.579   0.000  0.00  0.00    -0.271 OA
ATOM      3  N   UNL d   1       7.196   0.866   0.000  0.00  0.00    -0.293 N 
ATOM      4  C   UNL d   1       7.196  -0.134   0.000  0.00  0.00     0.187 A 
ATOM      5  CA  UNL d   1       8.204  -0.138   0.000  0.00  0.00     0.211 A 
ATOM      6  C   UNL d   1       8.204   0.870   0.000  0.00  0.00     0.251 A 
ATOM      7  CA  UNL d   1       6.330   1.366   0.000  0.00  0.00     0.117 A 
ATOM      8  C   UNL d   1       5.464   0.866   0.000  0.00  0.00    -0.013 A 
ATOM      9  C   UNL d   1       5.464  -0.134   0.000  0.00  0.00     0.115 A 
ENDROOT
BRANCH   5  10
ATOM     10  N   UNL d   1       8.910  -0.847   0.000  0.00  0.00    -0.339 N 
ATOM     11  C   UNL d   1       9.877  -0.590   0.000  0.00  0.00     0.275 C 
ATOM     12  O   UNL d   1      10.137   0.376   0.000  0.00  0.00    -0.266 OA
ATOM     13  H   UNL d   1       8.748  -1.445   0.000  0.00  0.00     0.163 HD
BRANCH  11  14
ATOM     14  C   UNL d   1      10.582  -1.298   0.000  0.00  0.00     0.180 C 
BRANCH  14  15
ATOM     15  N   UNL d   1      10.321  -2.264   0.000  0.00  0.00    -0.126 NA
BRANCH  15  16
ATOM     16  O   UNL d   1       9.355  -2.521   0.000  0.00  0.00    -0.261 OA
ATOM     17  C   UNL d   1       9.094  -3.486   0.000  0.00  0.00     0.240 C 
ENDBRANCH  15  16
ENDBRANCH  14  15
BRANCH  14  18
ATOM     18  C   UNL d   1      11.549  -1.042   0.000  0.00  0.00     0.102 A 
ATOM     19  N   UNL d   1      11.909  -0.109   0.000  0.00  0.00    -0.222 NA
ATOM     20  C   UNL d   1      12.908  -0.163   0.000  0.00  0.00     0.164 A 
ATOM     21  S   UNL d   1      13.164  -1.130   0.000  0.00  0.00    -0.062 SA
ATOM     22  C   UNL d   1      12.325  -1.673   0.000  0.00  0.00     0.087 A 
BRANCH  20  23
ATOM     23  N   UNL d   1      13.538   0.613   0.000  0.00  0.00    -0.378 N 
ATOM     24  H   UNL d   1      14.150   0.514   0.000  0.00  0.00     0.158 HD
ATOM     25  H   UNL d   1      13.317   1.192   0.000  0.00  0.00     0.158 HD
ENDBRANCH  20  23
ENDBRANCH  14  18
ENDBRANCH  11  14
ENDBRANCH   5  10
BRANCH   7  26
ATOM     26  C   UNL d   1       6.330   2.366   0.000  0.00  0.00     0.194 C 
ATOM     27  OXT UNL d   1       7.196   2.866   0.000  0.00  0.00    -0.645 OA
BRANCH  26  28
ATOM     28  O   UNL d   1       5.464   2.866   0.000  0.00  0.00    -0.772 OA
ATOM     29  H   UNL d   1       5.464   3.486   0.000  0.00  0.00     0.167 HD
ENDBRANCH  26  28
ENDBRANCH   7  26
BRANCH   8  30
ATOM     30  C   UNL d   1       4.598   1.366   0.000  0.00  0.00     0.216 C 
BRANCH  30  31
ATOM     31  O   UNL d   1       3.732   0.866   0.000  0.00  0.00    -0.317 OA
BRANCH  31  32
ATOM     32  C   UNL d   1       2.866   1.366   0.000  0.00  0.00     0.255 C 
ATOM     33  O   UNL d   1       2.866   2.366   0.000  0.00  0.00    -0.266 OA
ATOM     34  C   UNL d   1       2.000   0.866   0.000  0.00  0.00     0.126 C 
ENDBRANCH  31  32
ENDBRANCH  30  31
ENDBRANCH   8  30
TORSDOF 11
