@<TRIPOS>MOLECULE
5742673
 47 49 0 0 0
SMALL
GASTEIGER

@<TRIPOS>ATOM
      1 S           6.3301   -0.6340    0.0000 S.3     1  UNL1       -0.1310
      2 S          13.1643   -1.1296    0.0000 S.2     1  UNL1       -0.0604
      3 O           8.9101    1.5787    0.0000 O.2     1  UNL1       -0.2731
      4 O           3.7320    0.8660    0.0000 O.3     1  UNL1       -0.4603
      5 O           5.4641    2.8660    0.0000 O.3     1  UNL1       -0.4763
      6 OXT         7.1962    2.8660    0.0000 O.2     1  UNL1       -0.2437
      7 O          10.1373    0.3755    0.0000 O.2     1  UNL1       -0.2683
      8 O           9.3549   -2.5206    0.0000 O.2     1  UNL1       -0.3964
      9 O           2.8660    2.3660    0.0000 O.2     1  UNL1       -0.2512
     10 N           7.1962    0.8660    0.0000 N.am    1  UNL1       -0.2489
     11 N           8.9101   -0.8467    0.0000 N.am    1  UNL1       -0.2963
     12 N          10.3214   -2.2638    0.0000 N.2     1  UNL1       -0.0779
     13 N          11.9089   -0.1087    0.0000 N.ar    1  UNL1       -0.2233
     14 N          13.5384    0.6127    0.0000 N.pl3   1  UNL1       -0.3375
     15 C           7.1962   -0.1340    0.0000 C.3     1  UNL1        0.1042
     16 CA          8.2044   -0.1381    0.0000 C.3     1  UNL1        0.1286
     17 C           8.2044    0.8702    0.0000 C.2     1  UNL1        0.2440
     18 CA          6.3301    1.3660    0.0000 C.2     1  UNL1        0.1252
     19 C           5.4641    0.8660    0.0000 C.2     1  UNL1        0.0056
     20 C           5.4641   -0.1340    0.0000 C.3     1  UNL1        0.0220
     21 C           4.5981    1.3660    0.0000 C.3     1  UNL1        0.1166
     22 C           6.3301    2.3660    0.0000 C.2     1  UNL1        0.3515
     23 C           9.8765   -0.5898    0.0000 C.2     1  UNL1        0.2684
     24 C          10.5822   -1.2984    0.0000 C.2     1  UNL1        0.1897
     25 C          11.5486   -1.0416    0.0000 C.ar    1  UNL1        0.1067
     26 C           2.8660    1.3660    0.0000 C.2     1  UNL1        0.3043
     27 C          12.3245   -1.6725    0.0000 C.ar    1  UNL1        0.0067
     28 C           2.0000    0.8660    0.0000 C.3     1  UNL1        0.0332
     29 C          12.9075   -0.1631    0.0000 C.ar    1  UNL1        0.1562
     30 C           9.0941   -3.4860    0.0000 C.3     1  UNL1        0.1072
     31 H           7.4145   -0.9555    0.0000 H       1  UNL1        0.0644
     32 HA          7.9654   -0.7102    0.0000 H       1  UNL1        0.0622
     33 H           4.8535   -0.0263    0.0000 H       1  UNL1        0.0424
     34 H           5.2520   -0.7166    0.0000 H       1  UNL1        0.0424
     35 H           8.7484   -1.4452    0.0000 H       1  UNL1        0.1499
     36 H           4.9966    1.8410    0.0000 H       1  UNL1        0.0746
     37 H           4.1996    1.8410    0.0000 H       1  UNL1        0.0746
     38 H           5.4641    3.4860    0.0000 H       1  UNL1        0.2954
     39 H          12.2908   -2.2916    0.0000 H       1  UNL1        0.0716
     40 H           1.6900    1.4030    0.0000 H       1  UNL1        0.0342
     41 H           1.4631    0.5560    0.0000 H       1  UNL1        0.0342
     42 H           2.3100    0.3291    0.0000 H       1  UNL1        0.0342
     43 H           8.4956   -3.3243    0.0000 H       1  UNL1        0.0687
     44 H           8.9324   -4.0846    0.0000 H       1  UNL1        0.0687
     45 H           9.6927   -3.6477    0.0000 H       1  UNL1        0.0687
     46 H          14.1505    0.5145    0.0000 H       1  UNL1        0.1442
     47 H          13.3174    1.1920    0.0000 H       1  UNL1        0.1442
@<TRIPOS>BOND
     1     1    15    1
     2     1    20    1
     3     2    27   ar
     4     2    29   ar
     5     3    17    2
     6     4    21    1
     7     4    26    1
     8     5    22    1
     9     5    38    1
    10     6    22    2
    11     7    23    2
    12     8    12    1
    13     8    30    1
    14     9    26    2
    15    10    15    1
    16    10    17   am
    17    10    18    1
    18    16    11    1
    19    11    23   am
    20    11    35    1
    21    12    24    2
    22    13    25   ar
    23    13    29   ar
    24    14    29    1
    25    14    46    1
    26    14    47    1
    27    15    16    1
    28    15    31    1
    29    16    17    1
    30    16    32    1
    31    18    19    2
    32    18    22    1
    33    19    20    1
    34    19    21    1
    35    20    33    1
    36    20    34    1
    37    21    36    1
    38    21    37    1
    39    23    24    1
    40    24    25    1
    41    25    27   ar
    42    26    28    1
    43    27    39    1
    44    28    40    1
    45    28    41    1
    46    28    42    1
    47    30    43    1
    48    30    44    1
    49    30    45    1
