MODEL 1
REMARK VINA RESULT:      -4.0      0.000      0.000
REMARK  2 active torsions:
REMARK  status: ('A' for Active; 'I' for Inactive)
REMARK    1  A    between atoms: C_1  and  O_3 
REMARK    2  A    between atoms: C_1  and  C_4 
ROOT
ATOM      1  C   UNL d   1       7.680 -10.748 -27.578  0.00  0.00     0.213 C 
ATOM      2  O   UNL d   1       8.665 -11.227 -27.050  0.00  0.00    -0.644 OA
ENDROOT
BRANCH   1   3
ATOM      3  O   UNL d   1       7.685  -9.547 -28.162  0.00  0.00    -0.771 OA
ATOM      4  H   UNL d   1       8.477  -9.088 -27.820  0.00  0.00     0.168 HD
ENDBRANCH   1   3
BRANCH   1   5
ATOM      5  C   UNL d   1       6.317 -11.456 -27.640  0.00  0.00     0.218 C 
ATOM      6  O   UNL d   1       5.770 -11.686 -28.711  0.00  0.00    -0.286 OA
ATOM      7  C   UNL d   1       5.722 -11.834 -26.317  0.00  0.00     0.103 C 
ENDBRANCH   1   5
TORSDOF 2
ENDMDL
MODEL 2
REMARK VINA RESULT:      -4.0      1.136      2.584
REMARK  2 active torsions:
REMARK  status: ('A' for Active; 'I' for Inactive)
REMARK    1  A    between atoms: C_1  and  O_3 
REMARK    2  A    between atoms: C_1  and  C_4 
ROOT
ATOM      1  C   UNL d   1       6.163 -11.688 -27.641  0.00  0.00     0.213 C 
ATOM      2  O   UNL d   1       5.490 -12.080 -26.708  0.00  0.00    -0.644 OA
ENDROOT
BRANCH   1   3
ATOM      3  O   UNL d   1       5.739 -11.733 -28.907  0.00  0.00    -0.771 OA
ATOM      4  H   UNL d   1       6.300 -12.400 -29.352  0.00  0.00     0.168 HD
ENDBRANCH   1   3
BRANCH   1   5
ATOM      5  C   UNL d   1       7.574 -11.097 -27.487  0.00  0.00     0.218 C 
ATOM      6  O   UNL d   1       7.918 -10.105 -28.117  0.00  0.00    -0.286 OA
ATOM      7  C   UNL d   1       8.475 -11.813 -26.526  0.00  0.00     0.103 C 
ENDBRANCH   1   5
TORSDOF 2
ENDMDL
MODEL 3
REMARK VINA RESULT:      -3.9      1.517      2.170
REMARK  2 active torsions:
REMARK  status: ('A' for Active; 'I' for Inactive)
REMARK    1  A    between atoms: C_1  and  O_3 
REMARK    2  A    between atoms: C_1  and  C_4 
ROOT
ATOM      1  C   UNL d   1       6.590 -11.501 -27.953  0.00  0.00     0.213 C 
ATOM      2  O   UNL d   1       5.811 -11.784 -28.843  0.00  0.00    -0.644 OA
ENDROOT
BRANCH   1   3
ATOM      3  O   UNL d   1       7.735 -10.849 -28.175  0.00  0.00    -0.771 OA
ATOM      4  H   UNL d   1       7.968 -11.031 -29.106  0.00  0.00     0.168 HD
ENDBRANCH   1   3
BRANCH   1   5
ATOM      5  C   UNL d   1       6.361 -11.854 -26.475  0.00  0.00     0.218 C 
ATOM      6  O   UNL d   1       5.254 -12.176 -26.063  0.00  0.00    -0.286 OA
ATOM      7  C   UNL d   1       7.573 -11.776 -25.594  0.00  0.00     0.103 C 
ENDBRANCH   1   5
TORSDOF 2
ENDMDL
MODEL 4
REMARK VINA RESULT:      -3.8      1.593      2.759
REMARK  2 active torsions:
REMARK  status: ('A' for Active; 'I' for Inactive)
REMARK    1  A    between atoms: C_1  and  O_3 
REMARK    2  A    between atoms: C_1  and  C_4 
ROOT
ATOM      1  C   UNL d   1       5.870 -11.342 -27.389  0.00  0.00     0.213 C 
ATOM      2  O   UNL d   1       5.289 -11.901 -26.479  0.00  0.00    -0.644 OA
ENDROOT
BRANCH   1   3
ATOM      3  O   UNL d   1       5.807 -11.766 -28.655  0.00  0.00    -0.771 OA
ATOM      4  H   UNL d   1       5.483 -11.004 -29.174  0.00  0.00     0.168 HD
ENDBRANCH   1   3
BRANCH   1   5
ATOM      5  C   UNL d   1       6.742 -10.090 -27.204  0.00  0.00     0.218 C 
ATOM      6  O   UNL d   1       7.964 -10.154 -27.257  0.00  0.00    -0.286 OA
ATOM      7  C   UNL d   1       5.997  -8.812 -26.957  0.00  0.00     0.103 C 
ENDBRANCH   1   5
TORSDOF 2
ENDMDL
MODEL 5
REMARK VINA RESULT:      -3.8      3.043      4.171
REMARK  2 active torsions:
REMARK  status: ('A' for Active; 'I' for Inactive)
REMARK    1  A    between atoms: C_1  and  O_3 
REMARK    2  A    between atoms: C_1  and  C_4 
ROOT
ATOM      1  C   UNL d   1       8.765 -10.728 -25.474  0.00  0.00     0.213 C 
ATOM      2  O   UNL d   1       9.270 -11.354 -26.386  0.00  0.00    -0.644 OA
ENDROOT
BRANCH   1   3
ATOM      3  O   UNL d   1       7.622 -11.096 -24.890  0.00  0.00    -0.771 OA
ATOM      4  H   UNL d   1       6.908 -10.786 -25.482  0.00  0.00     0.168 HD
ENDBRANCH   1   3
BRANCH   1   5
ATOM      5  C   UNL d   1       9.371  -9.445 -24.882  0.00  0.00     0.218 C 
ATOM      6  O   UNL d   1      10.242  -8.822 -25.476  0.00  0.00    -0.286 OA
ATOM      7  C   UNL d   1       8.824  -9.024 -23.551  0.00  0.00     0.103 C 
ENDBRANCH   1   5
TORSDOF 2
ENDMDL
MODEL 6
REMARK VINA RESULT:      -3.8      3.421      4.207
REMARK  2 active torsions:
REMARK  status: ('A' for Active; 'I' for Inactive)
REMARK    1  A    between atoms: C_1  and  O_3 
REMARK    2  A    between atoms: C_1  and  C_4 
ROOT
ATOM      1  C   UNL d   1       9.284  -9.694 -25.124  0.00  0.00     0.213 C 
ATOM      2  O   UNL d   1      10.177  -8.880 -25.265  0.00  0.00    -0.644 OA
ENDROOT
BRANCH   1   3
ATOM      3  O   UNL d   1       9.146 -10.761 -25.915  0.00  0.00    -0.771 OA
ATOM      4  H   UNL d   1       8.285 -11.158 -25.679  0.00  0.00     0.168 HD
ENDBRANCH   1   3
BRANCH   1   5
ATOM      5  C   UNL d   1       8.209  -9.599 -24.029  0.00  0.00     0.218 C 
ATOM      6  O   UNL d   1       8.416 -10.025 -22.899  0.00  0.00    -0.286 OA
ATOM      7  C   UNL d   1       6.918  -8.959 -24.441  0.00  0.00     0.103 C 
ENDBRANCH   1   5
TORSDOF 2
ENDMDL
MODEL 7
REMARK VINA RESULT:      -3.8      3.448      4.255
REMARK  2 active torsions:
REMARK  status: ('A' for Active; 'I' for Inactive)
REMARK    1  A    between atoms: C_1  and  O_3 
REMARK    2  A    between atoms: C_1  and  C_4 
ROOT
ATOM      1  C   UNL d   1       9.231  -9.605 -25.131  0.00  0.00     0.213 C 
ATOM      2  O   UNL d   1      10.226  -8.913 -25.230  0.00  0.00    -0.644 OA
ENDROOT
BRANCH   1   3
ATOM      3  O   UNL d   1       8.570 -10.077 -26.191  0.00  0.00    -0.771 OA
ATOM      4  H   UNL d   1       9.183  -9.988 -26.948  0.00  0.00     0.168 HD
ENDBRANCH   1   3
BRANCH   1   5
ATOM      5  C   UNL d   1       8.612 -10.022 -23.786  0.00  0.00     0.218 C 
ATOM      6  O   UNL d   1       8.786  -9.355 -22.774  0.00  0.00    -0.286 OA
ATOM      7  C   UNL d   1       7.798 -11.280 -23.810  0.00  0.00     0.103 C 
ENDBRANCH   1   5
TORSDOF 2
ENDMDL
MODEL 8
REMARK VINA RESULT:      -3.7      2.998      3.783
REMARK  2 active torsions:
REMARK  status: ('A' for Active; 'I' for Inactive)
REMARK    1  A    between atoms: C_1  and  O_3 
REMARK    2  A    between atoms: C_1  and  C_4 
ROOT
ATOM      1  C   UNL d   1       6.818 -11.877 -24.229  0.00  0.00     0.213 C 
ATOM      2  O   UNL d   1       5.790 -12.526 -24.207  0.00  0.00    -0.644 OA
ENDROOT
BRANCH   1   3
ATOM      3  O   UNL d   1       7.578 -11.689 -23.147  0.00  0.00    -0.771 OA
ATOM      4  H   UNL d   1       7.326 -10.813 -22.794  0.00  0.00     0.168 HD
ENDBRANCH   1   3
BRANCH   1   5
ATOM      5  C   UNL d   1       7.370 -11.196 -25.493  0.00  0.00     0.218 C 
ATOM      6  O   UNL d   1       6.795 -10.242 -26.001  0.00  0.00    -0.286 OA
ATOM      7  C   UNL d   1       8.638 -11.777 -26.041  0.00  0.00     0.103 C 
ENDBRANCH   1   5
TORSDOF 2
ENDMDL
MODEL 9
REMARK VINA RESULT:      -3.7      3.089      4.024
REMARK  2 active torsions:
REMARK  status: ('A' for Active; 'I' for Inactive)
REMARK    1  A    between atoms: C_1  and  O_3 
REMARK    2  A    between atoms: C_1  and  C_4 
ROOT
ATOM      1  C   UNL d   1       7.792 -11.022 -24.229  0.00  0.00     0.213 C 
ATOM      2  O   UNL d   1       8.039 -11.681 -23.237  0.00  0.00    -0.644 OA
ENDROOT
BRANCH   1   3
ATOM      3  O   UNL d   1       6.548 -10.697 -24.589  0.00  0.00    -0.771 OA
ATOM      4  H   UNL d   1       6.188 -11.485 -25.043  0.00  0.00     0.168 HD
ENDBRANCH   1   3
BRANCH   1   5
ATOM      5  C   UNL d   1       8.869 -10.484 -25.185  0.00  0.00     0.218 C 
ATOM      6  O   UNL d   1       9.135 -11.062 -26.231  0.00  0.00    -0.286 OA
ATOM      7  C   UNL d   1       9.553  -9.223 -24.747  0.00  0.00     0.103 C 
ENDBRANCH   1   5
TORSDOF 2
ENDMDL
