@<TRIPOS>MOLECULE
PYR
 10 9 0 0 0
SMALL
GASTEIGER

@<TRIPOS>ATOM
      1 C           0.9295   -0.0621    0.0526 C.2     1  UNL1        0.3723
      2 O           0.2809   -0.2866   -0.9507 O.2     1  UNL1       -0.2419
      3 O           0.3639    0.2026    1.2341 O.3     1  UNL1       -0.4751
      4 C           2.4660   -0.0532    0.0925 C.2     1  UNL1        0.2360
      5 O           3.0729    0.1777    1.1301 O.2     1  UNL1       -0.2854
      6 C           3.1488   -0.3432   -1.2110 C.3     1  UNL1        0.0052
      7 H          -0.6013    0.1682    1.0806 H       1  UNL1        0.2955
      8 H           2.8738   -1.3410   -1.5613 H       1  UNL1        0.0311
      9 H           2.8738    0.4120   -1.9513 H       1  UNL1        0.0311
     10 H           4.2326   -0.3109   -1.0658 H       1  UNL1        0.0311
@<TRIPOS>BOND
     1     1     2    2
     2     1     3    1
     3     1     4    1
     4     3     7    1
     5     4     5    2
     6     4     6    1
     7     6     8    1
     8     6     9    1
     9     6    10    1
