REMARK  2 active torsions:
REMARK  status: ('A' for Active; 'I' for Inactive)
REMARK    1  A    between atoms: C_1  and  O_3 
REMARK    2  A    between atoms: C_1  and  C_4 
ROOT
ATOM      1  C   UNL d   1       0.929  -0.062   0.053  0.00  0.00     0.213 C 
ATOM      2  O   UNL d   1       0.281  -0.287  -0.951  0.00  0.00    -0.644 OA
ENDROOT
BRANCH   1   3
ATOM      3  O   UNL d   1       0.364   0.203   1.234  0.00  0.00    -0.771 OA
ATOM      4  H   UNL d   1      -0.601   0.168   1.081  0.00  0.00     0.168 HD
ENDBRANCH   1   3
BRANCH   1   5
ATOM      5  C   UNL d   1       2.466  -0.053   0.092  0.00  0.00     0.218 C 
ATOM      6  O   UNL d   1       3.073   0.178   1.130  0.00  0.00    -0.286 OA
ATOM      7  C   UNL d   1       3.149  -0.343  -1.211  0.00  0.00     0.103 C 
ENDBRANCH   1   5
TORSDOF 2
