MODEL 1
REMARK VINA RESULT:      -4.0      0.000      0.000
REMARK  2 active torsions:
REMARK  status: ('A' for Active; 'I' for Inactive)
REMARK    1  A    between atoms: C_1  and  O_3 
REMARK    2  A    between atoms: C_1  and  C_4 
ROOT
ATOM      1  C   UNL d   1       7.688 -10.800 -27.607  0.00  0.00     0.213 C 
ATOM      2  O   UNL d   1       8.677 -11.303 -27.111  0.00  0.00    -0.644 OA
ENDROOT
BRANCH   1   3
ATOM      3  O   UNL d   1       7.696  -9.583 -28.159  0.00  0.00    -0.771 OA
ATOM      4  H   UNL d   1       7.446  -9.716 -29.094  0.00  0.00     0.168 HD
ENDBRANCH   1   3
BRANCH   1   5
ATOM      5  C   UNL d   1       6.316 -11.490 -27.660  0.00  0.00     0.218 C 
ATOM      6  O   UNL d   1       5.750 -11.697 -28.726  0.00  0.00    -0.286 OA
ATOM      7  C   UNL d   1       5.737 -11.883 -26.334  0.00  0.00     0.103 C 
ENDBRANCH   1   5
TORSDOF 2
ENDMDL
MODEL 2
REMARK VINA RESULT:      -4.0      1.124      2.579
REMARK  2 active torsions:
REMARK  status: ('A' for Active; 'I' for Inactive)
REMARK    1  A    between atoms: C_1  and  O_3 
REMARK    2  A    between atoms: C_1  and  C_4 
ROOT
ATOM      1  C   UNL d   1       6.169 -11.689 -27.645  0.00  0.00     0.213 C 
ATOM      2  O   UNL d   1       5.501 -12.094 -26.714  0.00  0.00    -0.644 OA
ENDROOT
BRANCH   1   3
ATOM      3  O   UNL d   1       5.742 -11.727 -28.910  0.00  0.00    -0.771 OA
ATOM      4  H   UNL d   1       6.466 -12.140 -29.421  0.00  0.00     0.168 HD
ENDBRANCH   1   3
BRANCH   1   5
ATOM      5  C   UNL d   1       7.575 -11.089 -27.488  0.00  0.00     0.218 C 
ATOM      6  O   UNL d   1       7.915 -10.095 -28.116  0.00  0.00    -0.286 OA
ATOM      7  C   UNL d   1       8.478 -11.800 -26.525  0.00  0.00     0.103 C 
ENDBRANCH   1   5
TORSDOF 2
ENDMDL
MODEL 3
REMARK VINA RESULT:      -3.9      1.490      2.036
REMARK  2 active torsions:
REMARK  status: ('A' for Active; 'I' for Inactive)
REMARK    1  A    between atoms: C_1  and  O_3 
REMARK    2  A    between atoms: C_1  and  C_4 
ROOT
ATOM      1  C   UNL d   1       6.741 -11.433 -27.898  0.00  0.00     0.213 C 
ATOM      2  O   UNL d   1       7.773 -10.871 -28.206  0.00  0.00    -0.644 OA
ENDROOT
BRANCH   1   3
ATOM      3  O   UNL d   1       5.808 -11.771 -28.793  0.00  0.00    -0.771 OA
ATOM      4  H   UNL d   1       5.328 -10.944 -29.000  0.00  0.00     0.168 HD
ENDBRANCH   1   3
BRANCH   1   5
ATOM      5  C   UNL d   1       6.378 -11.821 -26.456  0.00  0.00     0.218 C 
ATOM      6  O   UNL d   1       5.242 -12.164 -26.157  0.00  0.00    -0.286 OA
ATOM      7  C   UNL d   1       7.502 -11.749 -25.464  0.00  0.00     0.103 C 
ENDBRANCH   1   5
TORSDOF 2
ENDMDL
MODEL 4
REMARK VINA RESULT:      -3.9      3.294      4.215
REMARK  2 active torsions:
REMARK  status: ('A' for Active; 'I' for Inactive)
REMARK    1  A    between atoms: C_1  and  O_3 
REMARK    2  A    between atoms: C_1  and  C_4 
ROOT
ATOM      1  C   UNL d   1       6.146 -12.071 -24.630  0.00  0.00     0.213 C 
ATOM      2  O   UNL d   1       5.729 -13.165 -24.305  0.00  0.00    -0.644 OA
ENDROOT
BRANCH   1   3
ATOM      3  O   UNL d   1       5.426 -11.210 -25.354  0.00  0.00    -0.771 OA
ATOM      4  H   UNL d   1       5.803 -10.327 -25.167  0.00  0.00     0.168 HD
ENDBRANCH   1   3
BRANCH   1   5
ATOM      5  C   UNL d   1       7.540 -11.545 -24.257  0.00  0.00     0.218 C 
ATOM      6  O   UNL d   1       7.847 -11.329 -23.091  0.00  0.00    -0.286 OA
ATOM      7  C   UNL d   1       8.477 -11.321 -25.407  0.00  0.00     0.103 C 
ENDBRANCH   1   5
TORSDOF 2
ENDMDL
MODEL 5
REMARK VINA RESULT:      -3.8      1.979      2.107
REMARK  2 active torsions:
REMARK  status: ('A' for Active; 'I' for Inactive)
REMARK    1  A    between atoms: C_1  and  O_3 
REMARK    2  A    between atoms: C_1  and  C_4 
ROOT
ATOM      1  C   UNL d   1       7.503  -9.707 -27.419  0.00  0.00     0.213 C 
ATOM      2  O   UNL d   1       8.288  -9.073 -26.742  0.00  0.00    -0.644 OA
ENDROOT
BRANCH   1   3
ATOM      3  O   UNL d   1       7.893 -10.629 -28.303  0.00  0.00    -0.771 OA
ATOM      4  H   UNL d   1       8.762 -10.947 -27.987  0.00  0.00     0.168 HD
ENDBRANCH   1   3
BRANCH   1   5
ATOM      5  C   UNL d   1       5.979  -9.529 -27.347  0.00  0.00     0.218 C 
ATOM      6  O   UNL d   1       5.225 -10.247 -27.992  0.00  0.00    -0.286 OA
ATOM      7  C   UNL d   1       5.496  -8.433 -26.444  0.00  0.00     0.103 C 
ENDBRANCH   1   5
TORSDOF 2
ENDMDL
MODEL 6
REMARK VINA RESULT:      -3.8      3.903      5.052
REMARK  2 active torsions:
REMARK  status: ('A' for Active; 'I' for Inactive)
REMARK    1  A    between atoms: C_1  and  O_3 
REMARK    2  A    between atoms: C_1  and  C_4 
ROOT
ATOM      1  C   UNL d   1       7.805 -10.789 -24.062  0.00  0.00     0.213 C 
ATOM      2  O   UNL d   1       7.163 -10.810 -25.093  0.00  0.00    -0.644 OA
ENDROOT
BRANCH   1   3
ATOM      3  O   UNL d   1       7.716 -11.749 -23.137  0.00  0.00    -0.771 OA
ATOM      4  H   UNL d   1       7.176 -12.457 -23.541  0.00  0.00     0.168 HD
ENDBRANCH   1   3
BRANCH   1   5
ATOM      5  C   UNL d   1       8.790  -9.669 -23.693  0.00  0.00     0.218 C 
ATOM      6  O   UNL d   1       8.852  -9.228 -22.552  0.00  0.00    -0.286 OA
ATOM      7  C   UNL d   1       9.652  -9.169 -24.814  0.00  0.00     0.103 C 
ENDBRANCH   1   5
TORSDOF 2
ENDMDL
MODEL 7
REMARK VINA RESULT:      -3.8      3.484      4.295
REMARK  2 active torsions:
REMARK  status: ('A' for Active; 'I' for Inactive)
REMARK    1  A    between atoms: C_1  and  O_3 
REMARK    2  A    between atoms: C_1  and  C_4 
ROOT
ATOM      1  C   UNL d   1       9.276  -9.734 -25.100  0.00  0.00     0.213 C 
ATOM      2  O   UNL d   1      10.173  -8.923 -25.216  0.00  0.00    -0.644 OA
ENDROOT
BRANCH   1   3
ATOM      3  O   UNL d   1       8.787 -10.423 -26.135  0.00  0.00    -0.771 OA
ATOM      4  H   UNL d   1       8.061  -9.876 -26.497  0.00  0.00     0.168 HD
ENDBRANCH   1   3
BRANCH   1   5
ATOM      5  C   UNL d   1       8.595 -10.067 -23.763  0.00  0.00     0.218 C 
ATOM      6  O   UNL d   1       8.756  -9.361 -22.776  0.00  0.00    -0.286 OA
ATOM      7  C   UNL d   1       7.736 -11.296 -23.763  0.00  0.00     0.103 C 
ENDBRANCH   1   5
TORSDOF 2
ENDMDL
MODEL 8
REMARK VINA RESULT:      -3.8      3.039      4.178
REMARK  2 active torsions:
REMARK  status: ('A' for Active; 'I' for Inactive)
REMARK    1  A    between atoms: C_1  and  O_3 
REMARK    2  A    between atoms: C_1  and  C_4 
ROOT
ATOM      1  C   UNL d   1       8.540 -10.526 -25.573  0.00  0.00     0.213 C 
ATOM      2  O   UNL d   1       7.350 -10.718 -25.420  0.00  0.00    -0.644 OA
ENDROOT
BRANCH   1   3
ATOM      3  O   UNL d   1       9.300 -11.298 -26.356  0.00  0.00    -0.771 OA
ATOM      4  H   UNL d   1      10.083 -10.757 -26.582  0.00  0.00     0.168 HD
ENDBRANCH   1   3
BRANCH   1   5
ATOM      5  C   UNL d   1       9.316  -9.388 -24.893  0.00  0.00     0.218 C 
ATOM      6  O   UNL d   1      10.257  -8.839 -25.451  0.00  0.00    -0.286 OA
ATOM      7  C   UNL d   1       8.840  -9.008 -23.522  0.00  0.00     0.103 C 
ENDBRANCH   1   5
TORSDOF 2
ENDMDL
MODEL 9
REMARK VINA RESULT:      -3.8      1.059      2.295
REMARK  2 active torsions:
REMARK  status: ('A' for Active; 'I' for Inactive)
REMARK    1  A    between atoms: C_1  and  O_3 
REMARK    2  A    between atoms: C_1  and  C_4 
ROOT
ATOM      1  C   UNL d   1       7.424 -10.856 -27.817  0.00  0.00     0.213 C 
ATOM      2  O   UNL d   1       6.568 -11.443 -28.448  0.00  0.00    -0.644 OA
ENDROOT
BRANCH   1   3
ATOM      3  O   UNL d   1       7.818  -9.615 -28.118  0.00  0.00    -0.771 OA
ATOM      4  H   UNL d   1       8.626  -9.458 -27.589  0.00  0.00     0.168 HD
ENDBRANCH   1   3
BRANCH   1   5
ATOM      5  C   UNL d   1       8.156 -11.457 -26.608  0.00  0.00     0.218 C 
ATOM      6  O   UNL d   1       9.362 -11.671 -26.637  0.00  0.00    -0.286 OA
ATOM      7  C   UNL d   1       7.299 -11.755 -25.414  0.00  0.00     0.103 C 
ENDBRANCH   1   5
TORSDOF 2
ENDMDL
