@<TRIPOS>MOLECULE
PYR
 10 9 0 0 0
SMALL
GASTEIGER

@<TRIPOS>ATOM
      1 C           0.9582    0.0926    0.0186 C.2     1  UNL1        0.3723
      2 O           0.3088   -0.7220    0.6443 O.2     1  UNL1       -0.2419
      3 O           0.3926    1.0526   -0.7190 O.3     1  UNL1       -0.4751
      4 C           2.4935    0.1234   -0.0050 C.2     1  UNL1        0.2360
      5 O           3.1030    0.9662   -0.6508 O.2     1  UNL1       -0.2854
      6 C           3.1752   -0.9376    0.8078 C.3     1  UNL1        0.0052
      7 H          -0.5724    0.9275   -0.6230 H       1  UNL1        0.2955
      8 H           2.8990   -0.8349    1.8602 H       1  UNL1        0.0311
      9 H           2.8990   -1.9269    0.4347 H       1  UNL1        0.0311
     10 H           4.2588   -0.8211    0.7185 H       1  UNL1        0.0311
@<TRIPOS>BOND
     1     1     2    2
     2     1     3    1
     3     1     4    1
     4     3     7    1
     5     4     5    2
     6     4     6    1
     7     6     8    1
     8     6     9    1
     9     6    10    1
