REMARK  2 active torsions:
REMARK  status: ('A' for Active; 'I' for Inactive)
REMARK    1  A    between atoms: C_1  and  O_3 
REMARK    2  A    between atoms: C_1  and  C_4 
ROOT
ATOM      1  C   UNL d   1       0.958   0.093   0.019  0.00  0.00     0.213 C 
ATOM      2  O   UNL d   1       0.309  -0.722   0.644  0.00  0.00    -0.644 OA
ENDROOT
BRANCH   1   3
ATOM      3  O   UNL d   1       0.393   1.053  -0.719  0.00  0.00    -0.771 OA
ATOM      4  H   UNL d   1      -0.572   0.927  -0.623  0.00  0.00     0.168 HD
ENDBRANCH   1   3
BRANCH   1   5
ATOM      5  C   UNL d   1       2.494   0.123  -0.005  0.00  0.00     0.218 C 
ATOM      6  O   UNL d   1       3.103   0.966  -0.651  0.00  0.00    -0.286 OA
ATOM      7  C   UNL d   1       3.175  -0.938   0.808  0.00  0.00     0.103 C 
ENDBRANCH   1   5
TORSDOF 2
