MODEL 1
REMARK VINA RESULT:      -7.1      0.000      0.000
REMARK  14 active torsions:
REMARK  status: ('A' for Active; 'I' for Inactive)
REMARK    1  A    between atoms: C_1  and  C_13 
REMARK    2  A    between atoms: C_6  and  O_33 
REMARK    3  A    between atoms: C_9  and  O_34 
REMARK    4  A    between atoms: C_11  and  O_35 
REMARK    5  A    between atoms: C_13  and  C_14 
REMARK    6  A    between atoms: C_14  and  C_15 
REMARK    7  A    between atoms: C_15  and  C_16 
REMARK    8  A    between atoms: C_16  and  C_17 
REMARK    9  A    between atoms: C_16  and  O_36 
REMARK   10  A    between atoms: C_17  and  C_18 
REMARK   11  A    between atoms: C_18  and  O_37 
REMARK   12  A    between atoms: C_18  and  C_19 
REMARK   13  A    between atoms: C_20  and  C_21 
REMARK   14  A    between atoms: C_22  and  C_23 
ROOT
ATOM      1  C   UNL d   1      25.774   8.626  40.439  0.00  0.00     0.066 C 
ENDROOT
BRANCH   1   2
ATOM      2  C   UNL d   1      24.474   7.936  40.088  0.00  0.00     0.063 A 
ATOM      3  O   UNL d   1      23.698   7.841  41.235  0.00  0.00    -0.310 OA
ATOM      4  C   UNL d   1      22.440   7.277  41.171  0.00  0.00     0.128 A 
ATOM      5  C   UNL d   1      21.740   7.232  42.408  0.00  0.00     0.134 A 
ATOM      6  C   UNL d   1      21.897   6.780  39.956  0.00  0.00     0.085 A 
ATOM      7  C   UNL d   1      20.387   6.666  42.420  0.00  0.00     0.106 A 
ATOM      8  C   UNL d   1      19.820   6.180  41.215  0.00  0.00     0.077 A 
ATOM      9  C   UNL d   1      20.562   6.235  39.995  0.00  0.00     0.088 A 
ATOM     10  C   UNL d   1      22.705   6.851  38.721  0.00  0.00     0.196 A 
ATOM     11  C   UNL d   1      24.048   7.470  38.871  0.00  0.00     0.019 A 
ATOM     12  O   UNL d   1      22.305   6.430  37.627  0.00  0.00    -0.287 OA
ATOM     13  C   UNL d   1      24.874   7.562  37.645  0.00  0.00     0.055 C 
BRANCH   5  14
ATOM     14  O   UNL d   1      22.287   7.703  43.586  0.00  0.00    -0.356 OA
ATOM     15  H   UNL d   1      21.606   7.781  44.243  0.00  0.00     0.218 HD
ENDBRANCH   5  14
BRANCH   7  16
ATOM     16  O   UNL d   1      19.714   6.635  43.646  0.00  0.00    -0.353 OA
ATOM     17  C   UNL d   1      18.299   6.352  43.597  0.00  0.00     0.210 C 
ENDBRANCH   7  16
BRANCH   9  18
ATOM     18  O   UNL d   1      20.079   5.791  38.792  0.00  0.00    -0.355 OA
ATOM     19  C   UNL d   1      18.857   5.059  38.797  0.00  0.00     0.210 C 
ENDBRANCH   9  18
ENDBRANCH   1   2
BRANCH   1  20
ATOM     20  C   UNL d   1      26.935   7.753  40.861  0.00  0.00     0.013 C 
BRANCH  20  21
ATOM     21  C   UNL d   1      28.111   7.934  39.902  0.00  0.00     0.011 C 
ATOM     22  C   UNL d   1      28.189   6.771  38.935  0.00  0.00     0.012 C 
BRANCH  21  23
ATOM     23  C   UNL d   1      29.470   8.084  40.649  0.00  0.00     0.131 C 
BRANCH  23  24
ATOM     24  C   UNL d   1      29.885   9.576  40.872  0.00  0.00     0.044 C 
ATOM     25  C   UNL d   1      31.280   9.836  40.289  0.00  0.00     0.015 C 
BRANCH  24  26
ATOM     26  C   UNL d   1      29.828   9.975  42.372  0.00  0.00     0.149 C 
BRANCH  26  27
ATOM     27  O   UNL d   1      31.157  10.116  42.846  0.00  0.00    -0.386 OA
ATOM     28  C   UNL d   1      31.377   9.474  44.085  0.00  0.00     0.202 C 
ENDBRANCH  26  27
BRANCH  26  29
ATOM     29  C   UNL d   1      29.092  11.234  42.513  0.00  0.00     0.005 C 
ATOM     30  C   UNL d   1      28.210  11.697  41.627  0.00  0.00    -0.001 C 
BRANCH  30  31
ATOM     31  C   UNL d   1      26.820  11.945  41.938  0.00  0.00     0.000 C 
ATOM     32  C   UNL d   1      25.824  11.611  41.084  0.00  0.00     0.006 C 
BRANCH  32  33
ATOM     33  C   UNL d   1      24.476  12.160  41.108  0.00  0.00    -0.066 C 
ATOM     34  C   UNL d   1      24.224  13.227  41.884  0.00  0.00    -0.024 C 
ATOM     35  C   UNL d   1      22.924  13.901  42.023  0.00  0.00     0.036 C 
ATOM     36  C   UNL d   1      23.442  11.494  40.261  0.00  0.00     0.048 C 
ENDBRANCH  32  33
ENDBRANCH  30  31
ENDBRANCH  26  29
ENDBRANCH  24  26
ENDBRANCH  23  24
BRANCH  23  37
ATOM     37  O   UNL d   1      29.370   7.442  41.944  0.00  0.00    -0.390 OA
ATOM     38  C   UNL d   1      30.235   6.327  42.151  0.00  0.00     0.202 C 
ENDBRANCH  23  37
ENDBRANCH  21  23
ENDBRANCH  20  21
ENDBRANCH   1  20
TORSDOF 14
ENDMDL
MODEL 2
REMARK VINA RESULT:      -7.0      2.520      5.230
REMARK  14 active torsions:
REMARK  status: ('A' for Active; 'I' for Inactive)
REMARK    1  A    between atoms: C_1  and  C_13 
REMARK    2  A    between atoms: C_6  and  O_33 
REMARK    3  A    between atoms: C_9  and  O_34 
REMARK    4  A    between atoms: C_11  and  O_35 
REMARK    5  A    between atoms: C_13  and  C_14 
REMARK    6  A    between atoms: C_14  and  C_15 
REMARK    7  A    between atoms: C_15  and  C_16 
REMARK    8  A    between atoms: C_16  and  C_17 
REMARK    9  A    between atoms: C_16  and  O_36 
REMARK   10  A    between atoms: C_17  and  C_18 
REMARK   11  A    between atoms: C_18  and  O_37 
REMARK   12  A    between atoms: C_18  and  C_19 
REMARK   13  A    between atoms: C_20  and  C_21 
REMARK   14  A    between atoms: C_22  and  C_23 
ROOT
ATOM      1  C   UNL d   1      26.169  11.586  41.433  0.00  0.00     0.066 C 
ENDROOT
BRANCH   1   2
ATOM      2  C   UNL d   1      25.294  10.683  40.591  0.00  0.00     0.063 A 
ATOM      3  O   UNL d   1      26.075   9.652  40.089  0.00  0.00    -0.310 OA
ATOM      4  C   UNL d   1      25.499   8.667  39.311  0.00  0.00     0.128 A 
ATOM      5  C   UNL d   1      26.397   7.664  38.852  0.00  0.00     0.134 A 
ATOM      6  C   UNL d   1      24.113   8.668  38.998  0.00  0.00     0.085 A 
ATOM      7  C   UNL d   1      25.858   6.571  38.036  0.00  0.00     0.106 A 
ATOM      8  C   UNL d   1      24.475   6.543  37.727  0.00  0.00     0.077 A 
ATOM      9  C   UNL d   1      23.608   7.577  38.200  0.00  0.00     0.088 A 
ATOM     10  C   UNL d   1      23.258   9.762  39.503  0.00  0.00     0.196 A 
ATOM     11  C   UNL d   1      23.952  10.783  40.331  0.00  0.00     0.019 A 
ATOM     12  O   UNL d   1      22.046   9.837  39.264  0.00  0.00    -0.287 OA
ATOM     13  C   UNL d   1      23.115  11.886  40.858  0.00  0.00     0.055 C 
BRANCH   5  14
ATOM     14  O   UNL d   1      27.746   7.685  39.150  0.00  0.00    -0.356 OA
ATOM     15  H   UNL d   1      27.997   8.560  39.423  0.00  0.00     0.218 HD
ENDBRANCH   5  14
BRANCH   7  16
ATOM     16  O   UNL d   1      26.757   5.593  37.599  0.00  0.00    -0.353 OA
ATOM     17  C   UNL d   1      26.276   4.682  36.587  0.00  0.00     0.210 C 
ENDBRANCH   7  16
BRANCH   9  18
ATOM     18  O   UNL d   1      22.263   7.615  37.946  0.00  0.00    -0.355 OA
ATOM     19  C   UNL d   1      21.463   6.551  38.450  0.00  0.00     0.210 C 
ENDBRANCH   9  18
ENDBRANCH   1   2
BRANCH   1  20
ATOM     20  C   UNL d   1      27.667  11.465  41.259  0.00  0.00     0.013 C 
BRANCH  20  21
ATOM     21  C   UNL d   1      28.371  11.594  42.610  0.00  0.00     0.011 C 
ATOM     22  C   UNL d   1      29.720  12.263  42.441  0.00  0.00     0.012 C 
BRANCH  21  23
ATOM     23  C   UNL d   1      28.555  10.219  43.318  0.00  0.00     0.131 C 
BRANCH  23  24
ATOM     24  C   UNL d   1      28.832   9.048  42.319  0.00  0.00     0.044 C 
ATOM     25  C   UNL d   1      27.875   7.879  42.587  0.00  0.00     0.015 C 
BRANCH  24  26
ATOM     26  C   UNL d   1      30.311   8.577  42.375  0.00  0.00     0.149 C 
BRANCH  26  27
ATOM     27  O   UNL d   1      30.325   7.165  42.508  0.00  0.00    -0.386 OA
ATOM     28  C   UNL d   1      31.617   6.608  42.392  0.00  0.00     0.202 C 
ENDBRANCH  26  27
BRANCH  26  29
ATOM     29  C   UNL d   1      30.999   8.987  41.148  0.00  0.00     0.005 C 
ATOM     30  C   UNL d   1      30.397   9.193  39.977  0.00  0.00    -0.001 C 
BRANCH  30  31
ATOM     31  C   UNL d   1      30.410  10.462  39.284  0.00  0.00     0.000 C 
ATOM     32  C   UNL d   1      29.511  10.761  38.317  0.00  0.00     0.006 C 
BRANCH  32  33
ATOM     33  C   UNL d   1      29.673  11.800  37.310  0.00  0.00    -0.066 C 
ATOM     34  C   UNL d   1      30.498  12.828  37.565  0.00  0.00    -0.024 C 
ATOM     35  C   UNL d   1      30.773  13.954  36.660  0.00  0.00     0.036 C 
ATOM     36  C   UNL d   1      28.900  11.658  36.040  0.00  0.00     0.048 C 
ENDBRANCH  32  33
ENDBRANCH  30  31
ENDBRANCH  26  29
ENDBRANCH  24  26
ENDBRANCH  23  24
BRANCH  23  37
ATOM     37  O   UNL d   1      29.672  10.307  44.237  0.00  0.00    -0.390 OA
ATOM     38  C   UNL d   1      29.336  10.303  45.623  0.00  0.00     0.202 C 
ENDBRANCH  23  37
ENDBRANCH  21  23
ENDBRANCH  20  21
ENDBRANCH   1  20
TORSDOF 14
ENDMDL
MODEL 3
REMARK VINA RESULT:      -6.8      2.661      6.591
REMARK  14 active torsions:
REMARK  status: ('A' for Active; 'I' for Inactive)
REMARK    1  A    between atoms: C_1  and  C_13 
REMARK    2  A    between atoms: C_6  and  O_33 
REMARK    3  A    between atoms: C_9  and  O_34 
REMARK    4  A    between atoms: C_11  and  O_35 
REMARK    5  A    between atoms: C_13  and  C_14 
REMARK    6  A    between atoms: C_14  and  C_15 
REMARK    7  A    between atoms: C_15  and  C_16 
REMARK    8  A    between atoms: C_16  and  C_17 
REMARK    9  A    between atoms: C_16  and  O_36 
REMARK   10  A    between atoms: C_17  and  C_18 
REMARK   11  A    between atoms: C_18  and  O_37 
REMARK   12  A    between atoms: C_18  and  C_19 
REMARK   13  A    between atoms: C_20  and  C_21 
REMARK   14  A    between atoms: C_22  and  C_23 
ROOT
ATOM      1  C   UNL d   1      21.583   7.516  42.461  0.00  0.00     0.066 C 
ENDROOT
BRANCH   1   2
ATOM      2  C   UNL d   1      20.164   6.996  42.517  0.00  0.00     0.063 A 
ATOM      3  O   UNL d   1      19.859   6.410  41.296  0.00  0.00    -0.310 OA
ATOM      4  C   UNL d   1      18.624   5.824  41.102  0.00  0.00     0.128 A 
ATOM      5  C   UNL d   1      18.425   5.258  39.812  0.00  0.00     0.134 A 
ATOM      6  C   UNL d   1      17.634   5.796  42.120  0.00  0.00     0.085 A 
ATOM      7  C   UNL d   1      17.145   4.598  39.534  0.00  0.00     0.106 A 
ATOM      8  C   UNL d   1      16.151   4.544  40.542  0.00  0.00     0.077 A 
ATOM      9  C   UNL d   1      16.387   5.135  41.822  0.00  0.00     0.088 A 
ATOM     10  C   UNL d   1      17.921   6.428  43.425  0.00  0.00     0.196 A 
ATOM     11  C   UNL d   1      19.271   7.037  43.556  0.00  0.00     0.019 A 
ATOM     12  O   UNL d   1      17.106   6.454  44.357  0.00  0.00    -0.287 OA
ATOM     13  C   UNL d   1      19.588   7.668  44.858  0.00  0.00     0.055 C 
BRANCH   5  14
ATOM     14  O   UNL d   1      19.391   5.307  38.825  0.00  0.00    -0.356 OA
ATOM     15  H   UNL d   1      19.332   4.527  38.285  0.00  0.00     0.218 HD
ENDBRANCH   5  14
BRANCH   7  16
ATOM     16  O   UNL d   1      16.972   4.044  38.262  0.00  0.00    -0.353 OA
ATOM     17  C   UNL d   1      17.415   2.680  38.087  0.00  0.00     0.210 C 
ENDBRANCH   7  16
BRANCH   9  18
ATOM     18  O   UNL d   1      15.477   5.119  42.845  0.00  0.00    -0.355 OA
ATOM     19  C   UNL d   1      14.347   5.979  42.742  0.00  0.00     0.210 C 
ENDBRANCH   9  18
ENDBRANCH   1   2
BRANCH   1  20
ATOM     20  C   UNL d   1      22.042   8.155  41.169  0.00  0.00     0.013 C 
BRANCH  20  21
ATOM     21  C   UNL d   1      23.427   7.636  40.782  0.00  0.00     0.011 C 
ATOM     22  C   UNL d   1      24.228   7.294  42.022  0.00  0.00     0.012 C 
BRANCH  21  23
ATOM     23  C   UNL d   1      24.221   8.653  39.910  0.00  0.00     0.131 C 
BRANCH  23  24
ATOM     24  C   UNL d   1      24.411   8.175  38.433  0.00  0.00     0.044 C 
ATOM     25  C   UNL d   1      23.090   8.291  37.660  0.00  0.00     0.015 C 
BRANCH  24  26
ATOM     26  C   UNL d   1      24.971   6.729  38.360  0.00  0.00     0.149 C 
BRANCH  26  27
ATOM     27  O   UNL d   1      24.398   6.085  37.233  0.00  0.00    -0.386 OA
ATOM     28  C   UNL d   1      25.289   5.202  36.584  0.00  0.00     0.202 C 
ENDBRANCH  26  27
BRANCH  26  29
ATOM     29  C   UNL d   1      26.431   6.777  38.240  0.00  0.00     0.005 C 
ATOM     30  C   UNL d   1      27.169   7.868  38.441  0.00  0.00    -0.001 C 
BRANCH  30  31
ATOM     31  C   UNL d   1      28.194   7.965  39.456  0.00  0.00     0.000 C 
ATOM     32  C   UNL d   1      28.263   7.094  40.490  0.00  0.00     0.006 C 
BRANCH  32  33
ATOM     33  C   UNL d   1      28.971   7.328  41.741  0.00  0.00    -0.066 C 
ATOM     34  C   UNL d   1      30.131   6.687  41.958  0.00  0.00    -0.024 C 
ATOM     35  C   UNL d   1      30.968   6.809  43.162  0.00  0.00     0.036 C 
ATOM     36  C   UNL d   1      28.356   8.274  42.718  0.00  0.00     0.048 C 
ENDBRANCH  32  33
ENDBRANCH  30  31
ENDBRANCH  26  29
ENDBRANCH  24  26
ENDBRANCH  23  24
BRANCH  23  37
ATOM     37  O   UNL d   1      23.510   9.915  39.891  0.00  0.00    -0.390 OA
ATOM     38  C   UNL d   1      24.262  11.057  40.297  0.00  0.00     0.202 C 
ENDBRANCH  23  37
ENDBRANCH  21  23
ENDBRANCH  20  21
ENDBRANCH   1  20
TORSDOF 14
ENDMDL
MODEL 4
REMARK VINA RESULT:      -6.7      2.814      4.556
REMARK  14 active torsions:
REMARK  status: ('A' for Active; 'I' for Inactive)
REMARK    1  A    between atoms: C_1  and  C_13 
REMARK    2  A    between atoms: C_6  and  O_33 
REMARK    3  A    between atoms: C_9  and  O_34 
REMARK    4  A    between atoms: C_11  and  O_35 
REMARK    5  A    between atoms: C_13  and  C_14 
REMARK    6  A    between atoms: C_14  and  C_15 
REMARK    7  A    between atoms: C_15  and  C_16 
REMARK    8  A    between atoms: C_16  and  C_17 
REMARK    9  A    between atoms: C_16  and  O_36 
REMARK   10  A    between atoms: C_17  and  C_18 
REMARK   11  A    between atoms: C_18  and  O_37 
REMARK   12  A    between atoms: C_18  and  C_19 
REMARK   13  A    between atoms: C_20  and  C_21 
REMARK   14  A    between atoms: C_22  and  C_23 
ROOT
ATOM      1  C   UNL d   1      28.900   7.253  39.878  0.00  0.00     0.066 C 
ENDROOT
BRANCH   1   2
ATOM      2  C   UNL d   1      27.488   7.332  39.339  0.00  0.00     0.063 A 
ATOM      3  O   UNL d   1      26.832   8.380  39.970  0.00  0.00    -0.310 OA
ATOM      4  C   UNL d   1      25.530   8.685  39.625  0.00  0.00     0.128 A 
ATOM      5  C   UNL d   1      24.961   9.776  40.339  0.00  0.00     0.134 A 
ATOM      6  C   UNL d   1      24.822   7.954  38.634  0.00  0.00     0.085 A 
ATOM      7  C   UNL d   1      23.587  10.175  40.016  0.00  0.00     0.106 A 
ATOM      8  C   UNL d   1      22.869   9.471  39.017  0.00  0.00     0.077 A 
ATOM      9  C   UNL d   1      23.475   8.373  38.331  0.00  0.00     0.088 A 
ATOM     10  C   UNL d   1      25.487   6.822  37.957  0.00  0.00     0.196 A 
ATOM     11  C   UNL d   1      26.887   6.557  38.383  0.00  0.00     0.019 A 
ATOM     12  O   UNL d   1      24.932   6.132  37.091  0.00  0.00    -0.287 OA
ATOM     13  C   UNL d   1      27.579   5.433  37.712  0.00  0.00     0.055 C 
BRANCH   5  14
ATOM     14  O   UNL d   1      25.656  10.466  41.313  0.00  0.00    -0.356 OA
ATOM     15  H   UNL d   1      25.957  11.295  40.961  0.00  0.00     0.218 HD
ENDBRANCH   5  14
BRANCH   7  16
ATOM     16  O   UNL d   1      23.049  11.253  40.725  0.00  0.00    -0.353 OA
ATOM     17  C   UNL d   1      23.650  12.544  40.489  0.00  0.00     0.210 C 
ENDBRANCH   7  16
BRANCH   9  18
ATOM     18  O   UNL d   1      22.846   7.649  37.353  0.00  0.00    -0.355 OA
ATOM     19  C   UNL d   1      21.673   6.925  37.713  0.00  0.00     0.210 C 
ENDBRANCH   9  18
ENDBRANCH   1   2
BRANCH   1  20
ATOM     20  C   UNL d   1      29.567   8.550  40.281  0.00  0.00     0.013 C 
BRANCH  20  21
ATOM     21  C   UNL d   1      30.509   8.318  41.462  0.00  0.00     0.011 C 
ATOM     22  C   UNL d   1      30.258   6.957  42.080  0.00  0.00     0.012 C 
BRANCH  21  23
ATOM     23  C   UNL d   1      30.375   9.420  42.555  0.00  0.00     0.131 C 
BRANCH  23  24
ATOM     24  C   UNL d   1      31.392  10.594  42.367  0.00  0.00     0.044 C 
ATOM     25  C   UNL d   1      32.303  10.714  43.596  0.00  0.00     0.015 C 
BRANCH  24  26
ATOM     26  C   UNL d   1      30.674  11.940  42.076  0.00  0.00     0.149 C 
BRANCH  26  27
ATOM     27  O   UNL d   1      31.087  12.886  43.049  0.00  0.00    -0.386 OA
ATOM     28  C   UNL d   1      30.026  13.678  43.540  0.00  0.00     0.202 C 
ENDBRANCH  26  27
BRANCH  26  29
ATOM     29  C   UNL d   1      31.026  12.398  40.729  0.00  0.00     0.005 C 
ATOM     30  C   UNL d   1      31.701  11.673  39.837  0.00  0.00    -0.001 C 
BRANCH  30  31
ATOM     31  C   UNL d   1      31.169  11.297  38.546  0.00  0.00     0.000 C 
ATOM     32  C   UNL d   1      30.046  11.859  38.041  0.00  0.00     0.006 C 
BRANCH  32  33
ATOM     33  C   UNL d   1      29.224  11.292  36.982  0.00  0.00    -0.066 C 
ATOM     34  C   UNL d   1      28.635  10.102  37.185  0.00  0.00    -0.024 C 
ATOM     35  C   UNL d   1      27.777   9.393  36.224  0.00  0.00     0.036 C 
ATOM     36  C   UNL d   1      29.088  12.075  35.718  0.00  0.00     0.048 C 
ENDBRANCH  32  33
ENDBRANCH  30  31
ENDBRANCH  26  29
ENDBRANCH  24  26
ENDBRANCH  23  24
BRANCH  23  37
ATOM     37  O   UNL d   1      29.035   9.968  42.511  0.00  0.00    -0.390 OA
ATOM     38  C   UNL d   1      28.160   9.551  43.557  0.00  0.00     0.202 C 
ENDBRANCH  23  37
ENDBRANCH  21  23
ENDBRANCH  20  21
ENDBRANCH   1  20
TORSDOF 14
ENDMDL
MODEL 5
REMARK VINA RESULT:      -6.6      2.290      4.832
REMARK  14 active torsions:
REMARK  status: ('A' for Active; 'I' for Inactive)
REMARK    1  A    between atoms: C_1  and  C_13 
REMARK    2  A    between atoms: C_6  and  O_33 
REMARK    3  A    between atoms: C_9  and  O_34 
REMARK    4  A    between atoms: C_11  and  O_35 
REMARK    5  A    between atoms: C_13  and  C_14 
REMARK    6  A    between atoms: C_14  and  C_15 
REMARK    7  A    between atoms: C_15  and  C_16 
REMARK    8  A    between atoms: C_16  and  C_17 
REMARK    9  A    between atoms: C_16  and  O_36 
REMARK   10  A    between atoms: C_17  and  C_18 
REMARK   11  A    between atoms: C_18  and  O_37 
REMARK   12  A    between atoms: C_18  and  C_19 
REMARK   13  A    between atoms: C_20  and  C_21 
REMARK   14  A    between atoms: C_22  and  C_23 
ROOT
ATOM      1  C   UNL d   1      22.501   7.098  40.783  0.00  0.00     0.066 C 
ENDROOT
BRANCH   1   2
ATOM      2  C   UNL d   1      21.140   6.881  41.407  0.00  0.00     0.063 A 
ATOM      3  O   UNL d   1      20.348   6.177  40.510  0.00  0.00    -0.310 OA
ATOM      4  C   UNL d   1      19.061   5.821  40.859  0.00  0.00     0.128 A 
ATOM      5  C   UNL d   1      18.346   5.105  39.860  0.00  0.00     0.134 A 
ATOM      6  C   UNL d   1      18.503   6.153  42.123  0.00  0.00     0.085 A 
ATOM      7  C   UNL d   1      16.977   4.672  40.162  0.00  0.00     0.106 A 
ATOM      8  C   UNL d   1      16.408   4.978  41.423  0.00  0.00     0.077 A 
ATOM      9  C   UNL d   1      17.158   5.709  42.396  0.00  0.00     0.088 A 
ATOM     10  C   UNL d   1      19.314   6.917  43.093  0.00  0.00     0.196 A 
ATOM     11  C   UNL d   1      20.688   7.264  42.643  0.00  0.00     0.019 A 
ATOM     12  O   UNL d   1      18.894   7.252  44.209  0.00  0.00    -0.287 OA
ATOM     13  C   UNL d   1      21.525   8.021  43.602  0.00  0.00     0.055 C 
BRANCH   5  14
ATOM     14  O   UNL d   1      18.895   4.804  38.628  0.00  0.00    -0.356 OA
ATOM     15  H   UNL d   1      19.802   4.545  38.740  0.00  0.00     0.218 HD
ENDBRANCH   5  14
BRANCH   7  16
ATOM     16  O   UNL d   1      16.293   3.966  39.168  0.00  0.00    -0.353 OA
ATOM     17  C   UNL d   1      16.558   2.548  39.087  0.00  0.00     0.210 C 
ENDBRANCH   7  16
BRANCH   9  18
ATOM     18  O   UNL d   1      16.677   6.037  43.636  0.00  0.00    -0.355 OA
ATOM     19  C   UNL d   1      15.345   6.534  43.721  0.00  0.00     0.210 C 
ENDBRANCH   9  18
ENDBRANCH   1   2
BRANCH   1  20
ATOM     20  C   UNL d   1      22.630   6.870  39.293  0.00  0.00     0.013 C 
BRANCH  20  21
ATOM     21  C   UNL d   1      23.362   8.042  38.638  0.00  0.00     0.011 C 
ATOM     22  C   UNL d   1      22.495   8.675  37.569  0.00  0.00     0.012 C 
BRANCH  21  23
ATOM     23  C   UNL d   1      24.728   7.619  38.021  0.00  0.00     0.131 C 
BRANCH  23  24
ATOM     24  C   UNL d   1      25.944   8.378  38.650  0.00  0.00     0.044 C 
ATOM     25  C   UNL d   1      27.214   8.126  37.827  0.00  0.00     0.015 C 
BRANCH  24  26
ATOM     26  C   UNL d   1      26.161   7.992  40.138  0.00  0.00     0.149 C 
BRANCH  26  27
ATOM     27  O   UNL d   1      27.519   7.618  40.308  0.00  0.00    -0.386 OA
ATOM     28  C   UNL d   1      27.879   7.430  41.660  0.00  0.00     0.202 C 
ENDBRANCH  26  27
BRANCH  26  29
ATOM     29  C   UNL d   1      25.829   9.136  40.991  0.00  0.00     0.005 C 
ATOM     30  C   UNL d   1      26.027  10.410  40.656  0.00  0.00    -0.001 C 
BRANCH  30  31
ATOM     31  C   UNL d   1      24.963  11.384  40.554  0.00  0.00     0.000 C 
ATOM     32  C   UNL d   1      24.954  12.518  41.293  0.00  0.00     0.006 C 
BRANCH  32  33
ATOM     33  C   UNL d   1      23.782  13.337  41.563  0.00  0.00    -0.066 C 
ATOM     34  C   UNL d   1      23.083  13.118  42.689  0.00  0.00    -0.024 C 
ATOM     35  C   UNL d   1      21.880  13.852  43.110  0.00  0.00     0.036 C 
ATOM     36  C   UNL d   1      23.421  14.382  40.559  0.00  0.00     0.048 C 
ENDBRANCH  32  33
ENDBRANCH  30  31
ENDBRANCH  26  29
ENDBRANCH  24  26
ENDBRANCH  23  24
BRANCH  23  37
ATOM     37  O   UNL d   1      24.922   6.199  38.231  0.00  0.00    -0.390 OA
ATOM     38  C   UNL d   1      25.309   5.449  37.082  0.00  0.00     0.202 C 
ENDBRANCH  23  37
ENDBRANCH  21  23
ENDBRANCH  20  21
ENDBRANCH   1  20
TORSDOF 14
ENDMDL
MODEL 6
REMARK VINA RESULT:      -6.6      4.312      9.960
REMARK  14 active torsions:
REMARK  status: ('A' for Active; 'I' for Inactive)
REMARK    1  A    between atoms: C_1  and  C_13 
REMARK    2  A    between atoms: C_6  and  O_33 
REMARK    3  A    between atoms: C_9  and  O_34 
REMARK    4  A    between atoms: C_11  and  O_35 
REMARK    5  A    between atoms: C_13  and  C_14 
REMARK    6  A    between atoms: C_14  and  C_15 
REMARK    7  A    between atoms: C_15  and  C_16 
REMARK    8  A    between atoms: C_16  and  C_17 
REMARK    9  A    between atoms: C_16  and  O_36 
REMARK   10  A    between atoms: C_17  and  C_18 
REMARK   11  A    between atoms: C_18  and  O_37 
REMARK   12  A    between atoms: C_18  and  C_19 
REMARK   13  A    between atoms: C_20  and  C_21 
REMARK   14  A    between atoms: C_22  and  C_23 
ROOT
ATOM      1  C   UNL d   1      27.314   9.048  36.959  0.00  0.00     0.066 C 
ENDROOT
BRANCH   1   2
ATOM      2  C   UNL d   1      28.525   9.955  36.977  0.00  0.00     0.063 A 
ATOM      3  O   UNL d   1      29.185   9.837  35.761  0.00  0.00    -0.310 OA
ATOM      4  C   UNL d   1      30.311  10.596  35.512  0.00  0.00     0.128 A 
ATOM      5  C   UNL d   1      30.902  10.388  34.235  0.00  0.00     0.134 A 
ATOM      6  C   UNL d   1      30.832  11.509  36.468  0.00  0.00     0.085 A 
ATOM      7  C   UNL d   1      32.092  11.172  33.887  0.00  0.00     0.106 A 
ATOM      8  C   UNL d   1      32.618  12.101  34.819  0.00  0.00     0.077 A 
ATOM      9  C   UNL d   1      31.999  12.271  36.096  0.00  0.00     0.088 A 
ATOM     10  C   UNL d   1      30.163  11.644  37.778  0.00  0.00     0.196 A 
ATOM     11  C   UNL d   1      28.958  10.794  37.970  0.00  0.00     0.019 A 
ATOM     12  O   UNL d   1      30.563  12.410  38.665  0.00  0.00    -0.287 OA
ATOM     13  C   UNL d   1      28.262  10.919  39.272  0.00  0.00     0.055 C 
BRANCH   5  14
ATOM     14  O   UNL d   1      30.395   9.484  33.322  0.00  0.00    -0.356 OA
ATOM     15  H   UNL d   1      31.009   9.379  32.606  0.00  0.00     0.218 HD
ENDBRANCH   5  14
BRANCH   7  16
ATOM     16  O   UNL d   1      32.655  10.957  32.625  0.00  0.00    -0.353 OA
ATOM     17  C   UNL d   1      32.760  12.109  31.761  0.00  0.00     0.210 C 
ENDBRANCH   7  16
BRANCH   9  18
ATOM     18  O   UNL d   1      32.446  13.151  37.045  0.00  0.00    -0.355 OA
ATOM     19  C   UNL d   1      32.525  14.528  36.689  0.00  0.00     0.210 C 
ENDBRANCH   9  18
ENDBRANCH   1   2
BRANCH   1  20
ATOM     20  C   UNL d   1      27.531   7.588  37.291  0.00  0.00     0.013 C 
BRANCH  20  21
ATOM     21  C   UNL d   1      26.485   7.111  38.297  0.00  0.00     0.011 C 
ATOM     22  C   UNL d   1      25.579   6.073  37.666  0.00  0.00     0.012 C 
BRANCH  21  23
ATOM     23  C   UNL d   1      25.624   8.281  38.861  0.00  0.00     0.131 C 
BRANCH  23  24
ATOM     24  C   UNL d   1      24.093   7.962  38.876  0.00  0.00     0.044 C 
ATOM     25  C   UNL d   1      23.426   8.489  37.599  0.00  0.00     0.015 C 
BRANCH  24  26
ATOM     26  C   UNL d   1      23.395   8.531  40.141  0.00  0.00     0.149 C 
BRANCH  26  27
ATOM     27  O   UNL d   1      22.709   9.718  39.776  0.00  0.00    -0.386 OA
ATOM     28  C   UNL d   1      23.335  10.891  40.253  0.00  0.00     0.202 C 
ENDBRANCH  26  27
BRANCH  26  29
ATOM     29  C   UNL d   1      22.459   7.536  40.670  0.00  0.00     0.005 C 
ATOM     30  C   UNL d   1      22.551   6.980  41.878  0.00  0.00    -0.001 C 
BRANCH  30  31
ATOM     31  C   UNL d   1      21.527   7.097  42.892  0.00  0.00     0.000 C 
ATOM     32  C   UNL d   1      20.367   6.403  42.822  0.00  0.00     0.006 C 
BRANCH  32  33
ATOM     33  C   UNL d   1      19.143   6.735  43.538  0.00  0.00    -0.066 C 
ATOM     34  C   UNL d   1      17.986   6.190  43.131  0.00  0.00    -0.024 C 
ATOM     35  C   UNL d   1      16.667   6.419  43.741  0.00  0.00     0.036 C 
ATOM     36  C   UNL d   1      19.251   7.676  44.693  0.00  0.00     0.048 C 
ENDBRANCH  32  33
ENDBRANCH  30  31
ENDBRANCH  26  29
ENDBRANCH  24  26
ENDBRANCH  23  24
BRANCH  23  37
ATOM     37  O   UNL d   1      26.043   8.562  40.219  0.00  0.00    -0.390 OA
ATOM     38  C   UNL d   1      27.113   7.761  40.716  0.00  0.00     0.202 C 
ENDBRANCH  23  37
ENDBRANCH  21  23
ENDBRANCH  20  21
ENDBRANCH   1  20
TORSDOF 14
ENDMDL
MODEL 7
REMARK VINA RESULT:      -6.6      3.615      9.547
REMARK  14 active torsions:
REMARK  status: ('A' for Active; 'I' for Inactive)
REMARK    1  A    between atoms: C_1  and  C_13 
REMARK    2  A    between atoms: C_6  and  O_33 
REMARK    3  A    between atoms: C_9  and  O_34 
REMARK    4  A    between atoms: C_11  and  O_35 
REMARK    5  A    between atoms: C_13  and  C_14 
REMARK    6  A    between atoms: C_14  and  C_15 
REMARK    7  A    between atoms: C_15  and  C_16 
REMARK    8  A    between atoms: C_16  and  C_17 
REMARK    9  A    between atoms: C_16  and  O_36 
REMARK   10  A    between atoms: C_17  and  C_18 
REMARK   11  A    between atoms: C_18  and  O_37 
REMARK   12  A    between atoms: C_18  and  C_19 
REMARK   13  A    between atoms: C_20  and  C_21 
REMARK   14  A    between atoms: C_22  and  C_23 
ROOT
ATOM      1  C   UNL d   1      29.324   8.444  40.158  0.00  0.00     0.066 C 
ENDROOT
BRANCH   1   2
ATOM      2  C   UNL d   1      29.832   9.746  39.577  0.00  0.00     0.063 A 
ATOM      3  O   UNL d   1      29.869   9.630  38.195  0.00  0.00    -0.310 OA
ATOM      4  C   UNL d   1      30.267  10.703  37.423  0.00  0.00     0.128 A 
ATOM      5  C   UNL d   1      30.266  10.466  36.021  0.00  0.00     0.134 A 
ATOM      6  C   UNL d   1      30.647  11.946  37.999  0.00  0.00     0.085 A 
ATOM      7  C   UNL d   1      30.658  11.565  35.132  0.00  0.00     0.106 A 
ATOM      8  C   UNL d   1      31.024  12.817  35.684  0.00  0.00     0.077 A 
ATOM      9  C   UNL d   1      31.021  13.011  37.100  0.00  0.00     0.088 A 
ATOM     10  C   UNL d   1      30.636  12.095  39.469  0.00  0.00     0.196 A 
ATOM     11  C   UNL d   1      30.196  10.895  40.229  0.00  0.00     0.019 A 
ATOM     12  O   UNL d   1      30.963  13.142  40.044  0.00  0.00    -0.287 OA
ATOM     13  C   UNL d   1      30.166  11.023  41.704  0.00  0.00     0.055 C 
BRANCH   5  14
ATOM     14  O   UNL d   1      29.911   9.247  35.476  0.00  0.00    -0.356 OA
ATOM     15  H   UNL d   1      29.349   9.388  34.724  0.00  0.00     0.218 HD
ENDBRANCH   5  14
BRANCH   7  16
ATOM     16  O   UNL d   1      30.646  11.312  33.756  0.00  0.00    -0.353 OA
ATOM     17  C   UNL d   1      31.926  11.063  33.136  0.00  0.00     0.210 C 
ENDBRANCH   7  16
BRANCH   9  18
ATOM     18  O   UNL d   1      31.357  14.192  37.706  0.00  0.00    -0.355 OA
ATOM     19  C   UNL d   1      30.724  15.380  37.242  0.00  0.00     0.210 C 
ENDBRANCH   9  18
ENDBRANCH   1   2
BRANCH   1  20
ATOM     20  C   UNL d   1      28.032   7.889  39.602  0.00  0.00     0.013 C 
BRANCH  20  21
ATOM     21  C   UNL d   1      26.841   8.399  40.414  0.00  0.00     0.011 C 
ATOM     22  C   UNL d   1      26.815   7.744  41.780  0.00  0.00     0.012 C 
BRANCH  21  23
ATOM     23  C   UNL d   1      25.482   8.157  39.693  0.00  0.00     0.131 C 
BRANCH  23  24
ATOM     24  C   UNL d   1      24.589   9.440  39.626  0.00  0.00     0.044 C 
ATOM     25  C   UNL d   1      25.262  10.599  40.373  0.00  0.00     0.015 C 
BRANCH  24  26
ATOM     26  C   UNL d   1      23.160   9.181  40.177  0.00  0.00     0.149 C 
BRANCH  26  27
ATOM     27  O   UNL d   1      22.222   9.613  39.204  0.00  0.00    -0.386 OA
ATOM     28  C   UNL d   1      22.123   8.740  38.099  0.00  0.00     0.202 C 
ENDBRANCH  26  27
BRANCH  26  29
ATOM     29  C   UNL d   1      22.997   7.750  40.452  0.00  0.00     0.005 C 
ATOM     30  C   UNL d   1      22.817   7.231  41.666  0.00  0.00    -0.001 C 
BRANCH  30  31
ATOM     31  C   UNL d   1      21.646   6.474  42.046  0.00  0.00     0.000 C 
ATOM     32  C   UNL d   1      20.392   6.912  41.784  0.00  0.00     0.006 C 
BRANCH  32  33
ATOM     33  C   UNL d   1      19.183   6.454  42.454  0.00  0.00    -0.066 C 
ATOM     34  C   UNL d   1      18.066   6.282  41.729  0.00  0.00    -0.024 C 
ATOM     35  C   UNL d   1      16.766   5.827  42.247  0.00  0.00     0.036 C 
ATOM     36  C   UNL d   1      19.259   6.202  43.923  0.00  0.00     0.048 C 
ENDBRANCH  32  33
ENDBRANCH  30  31
ENDBRANCH  26  29
ENDBRANCH  24  26
ENDBRANCH  23  24
BRANCH  23  37
ATOM     37  O   UNL d   1      25.739   7.711  38.339  0.00  0.00    -0.390 OA
ATOM     38  C   UNL d   1      25.135   6.473  37.969  0.00  0.00     0.202 C 
ENDBRANCH  23  37
ENDBRANCH  21  23
ENDBRANCH  20  21
ENDBRANCH   1  20
TORSDOF 14
ENDMDL
MODEL 8
REMARK VINA RESULT:      -6.6      2.764      5.116
REMARK  14 active torsions:
REMARK  status: ('A' for Active; 'I' for Inactive)
REMARK    1  A    between atoms: C_1  and  C_13 
REMARK    2  A    between atoms: C_6  and  O_33 
REMARK    3  A    between atoms: C_9  and  O_34 
REMARK    4  A    between atoms: C_11  and  O_35 
REMARK    5  A    between atoms: C_13  and  C_14 
REMARK    6  A    between atoms: C_14  and  C_15 
REMARK    7  A    between atoms: C_15  and  C_16 
REMARK    8  A    between atoms: C_16  and  C_17 
REMARK    9  A    between atoms: C_16  and  O_36 
REMARK   10  A    between atoms: C_17  and  C_18 
REMARK   11  A    between atoms: C_18  and  O_37 
REMARK   12  A    between atoms: C_18  and  C_19 
REMARK   13  A    between atoms: C_20  and  C_21 
REMARK   14  A    between atoms: C_22  and  C_23 
ROOT
ATOM      1  C   UNL d   1      27.096  11.107  41.132  0.00  0.00     0.066 C 
ENDROOT
BRANCH   1   2
ATOM      2  C   UNL d   1      26.009  10.353  40.400  0.00  0.00     0.063 A 
ATOM      3  O   UNL d   1      26.562   9.210  39.839  0.00  0.00    -0.310 OA
ATOM      4  C   UNL d   1      25.762   8.327  39.142  0.00  0.00     0.128 A 
ATOM      5  C   UNL d   1      26.440   7.194  38.612  0.00  0.00     0.134 A 
ATOM      6  C   UNL d   1      24.369   8.545  38.971  0.00  0.00     0.085 A 
ATOM      7  C   UNL d   1      25.655   6.198  37.875  0.00  0.00     0.106 A 
ATOM      8  C   UNL d   1      24.261   6.388  37.709  0.00  0.00     0.077 A 
ATOM      9  C   UNL d   1      23.620   7.546  38.248  0.00  0.00     0.088 A 
ATOM     10  C   UNL d   1      23.752   9.761  39.541  0.00  0.00     0.196 A 
ATOM     11  C   UNL d   1      24.679  10.662  40.276  0.00  0.00     0.019 A 
ATOM     12  O   UNL d   1      22.548  10.026  39.425  0.00  0.00    -0.287 OA
ATOM     13  C   UNL d   1      24.084  11.883  40.865  0.00  0.00     0.055 C 
BRANCH   5  14
ATOM     14  O   UNL d   1      27.799   7.003  38.771  0.00  0.00    -0.356 OA
ATOM     15  H   UNL d   1      27.952   6.219  39.284  0.00  0.00     0.218 HD
ENDBRANCH   5  14
BRANCH   7  16
ATOM     16  O   UNL d   1      26.340   5.090  37.367  0.00  0.00    -0.353 OA
ATOM     17  C   UNL d   1      25.773   4.464  36.195  0.00  0.00     0.210 C 
ENDBRANCH   7  16
BRANCH   9  18
ATOM     18  O   UNL d   1      22.279   7.795  38.132  0.00  0.00    -0.355 OA
ATOM     19  C   UNL d   1      21.392   6.681  38.162  0.00  0.00     0.210 C 
ENDBRANCH   9  18
ENDBRANCH   1   2
BRANCH   1  20
ATOM     20  C   UNL d   1      27.432  10.657  42.537  0.00  0.00     0.013 C 
BRANCH  20  21
ATOM     21  C   UNL d   1      28.614   9.688  42.516  0.00  0.00     0.011 C 
ATOM     22  C   UNL d   1      28.128   8.259  42.652  0.00  0.00     0.012 C 
BRANCH  21  23
ATOM     23  C   UNL d   1      29.655   9.994  43.634  0.00  0.00     0.131 C 
BRANCH  23  24
ATOM     24  C   UNL d   1      30.939  10.707  43.095  0.00  0.00     0.044 C 
ATOM     25  C   UNL d   1      32.146  10.376  43.982  0.00  0.00     0.015 C 
BRANCH  24  26
ATOM     26  C   UNL d   1      30.742  12.243  42.977  0.00  0.00     0.149 C 
BRANCH  26  27
ATOM     27  O   UNL d   1      31.579  12.874  43.932  0.00  0.00    -0.386 OA
ATOM     28  C   UNL d   1      30.883  13.767  44.777  0.00  0.00     0.202 C 
ENDBRANCH  26  27
BRANCH  26  29
ATOM     29  C   UNL d   1      31.089  12.675  41.620  0.00  0.00     0.005 C 
ATOM     30  C   UNL d   1      31.070  11.884  40.547  0.00  0.00    -0.001 C 
BRANCH  30  31
ATOM     31  C   UNL d   1      30.233  12.123  39.393  0.00  0.00     0.000 C 
ATOM     32  C   UNL d   1      29.741  11.111  38.642  0.00  0.00     0.006 C 
BRANCH  32  33
ATOM     33  C   UNL d   1      29.247  11.237  37.278  0.00  0.00    -0.066 C 
ATOM     34  C   UNL d   1      29.750  12.205  36.494  0.00  0.00    -0.024 C 
ATOM     35  C   UNL d   1      29.363  12.469  35.099  0.00  0.00     0.036 C 
ATOM     36  C   UNL d   1      28.198  10.274  36.829  0.00  0.00     0.048 C 
ENDBRANCH  32  33
ENDBRANCH  30  31
ENDBRANCH  26  29
ENDBRANCH  24  26
ENDBRANCH  23  24
BRANCH  23  37
ATOM     37  O   UNL d   1      29.042  10.852  44.627  0.00  0.00    -0.390 OA
ATOM     38  C   UNL d   1      29.156  10.415  45.980  0.00  0.00     0.202 C 
ENDBRANCH  23  37
ENDBRANCH  21  23
ENDBRANCH  20  21
ENDBRANCH   1  20
TORSDOF 14
ENDMDL
MODEL 9
REMARK VINA RESULT:      -6.4      2.590      8.828
REMARK  14 active torsions:
REMARK  status: ('A' for Active; 'I' for Inactive)
REMARK    1  A    between atoms: C_1  and  C_13 
REMARK    2  A    between atoms: C_6  and  O_33 
REMARK    3  A    between atoms: C_9  and  O_34 
REMARK    4  A    between atoms: C_11  and  O_35 
REMARK    5  A    between atoms: C_13  and  C_14 
REMARK    6  A    between atoms: C_14  and  C_15 
REMARK    7  A    between atoms: C_15  and  C_16 
REMARK    8  A    between atoms: C_16  and  C_17 
REMARK    9  A    between atoms: C_16  and  O_36 
REMARK   10  A    between atoms: C_17  and  C_18 
REMARK   11  A    between atoms: C_18  and  O_37 
REMARK   12  A    between atoms: C_18  and  C_19 
REMARK   13  A    between atoms: C_20  and  C_21 
REMARK   14  A    between atoms: C_22  and  C_23 
ROOT
ATOM      1  C   UNL d   1      27.678   7.837  41.158  0.00  0.00     0.066 C 
ENDROOT
BRANCH   1   2
ATOM      2  C   UNL d   1      28.839   8.396  41.952  0.00  0.00     0.063 A 
ATOM      3  O   UNL d   1      28.633   9.755  42.140  0.00  0.00    -0.310 OA
ATOM      4  C   UNL d   1      29.541  10.495  42.871  0.00  0.00     0.128 A 
ATOM      5  C   UNL d   1      29.227  11.877  42.995  0.00  0.00     0.134 A 
ATOM      6  C   UNL d   1      30.700   9.910  43.448  0.00  0.00     0.085 A 
ATOM      7  C   UNL d   1      30.133  12.727  43.774  0.00  0.00     0.106 A 
ATOM      8  C   UNL d   1      31.285  12.160  44.373  0.00  0.00     0.077 A 
ATOM      9  C   UNL d   1      31.570  10.768  44.215  0.00  0.00     0.088 A 
ATOM     10  C   UNL d   1      30.957   8.468  43.251  0.00  0.00     0.196 A 
ATOM     11  C   UNL d   1      29.934   7.741  42.453  0.00  0.00     0.019 A 
ATOM     12  O   UNL d   1      31.948   7.889  43.713  0.00  0.00    -0.287 OA
ATOM     13  C   UNL d   1      30.163   6.292  42.249  0.00  0.00     0.055 C 
BRANCH   5  14
ATOM     14  O   UNL d   1      28.105  12.436  42.414  0.00  0.00    -0.356 OA
ATOM     15  H   UNL d   1      27.753  13.108  42.985  0.00  0.00     0.218 HD
ENDBRANCH   5  14
BRANCH   7  16
ATOM     16  O   UNL d   1      29.802  14.081  43.888  0.00  0.00    -0.353 OA
ATOM     17  C   UNL d   1      30.488  14.988  42.998  0.00  0.00     0.210 C 
ENDBRANCH   7  16
BRANCH   9  18
ATOM     18  O   UNL d   1      32.659  10.149  44.767  0.00  0.00    -0.355 OA
ATOM     19  C   UNL d   1      32.871  10.302  46.167  0.00  0.00     0.210 C 
ENDBRANCH   9  18
ENDBRANCH   1   2
BRANCH   1  20
ATOM     20  C   UNL d   1      26.313   8.442  41.399  0.00  0.00     0.013 C 
BRANCH  20  21
ATOM     21  C   UNL d   1      25.838   9.193  40.155  0.00  0.00     0.011 C 
ATOM     22  C   UNL d   1      25.741  10.678  40.438  0.00  0.00     0.012 C 
BRANCH  21  23
ATOM     23  C   UNL d   1      24.466   8.669  39.632  0.00  0.00     0.131 C 
BRANCH  23  24
ATOM     24  C   UNL d   1      24.523   8.181  38.147  0.00  0.00     0.044 C 
ATOM     25  C   UNL d   1      23.113   8.138  37.545  0.00  0.00     0.015 C 
BRANCH  24  26
ATOM     26  C   UNL d   1      25.224   6.802  38.018  0.00  0.00     0.149 C 
BRANCH  26  27
ATOM     27  O   UNL d   1      24.391   5.949  37.249  0.00  0.00    -0.386 OA
ATOM     28  C   UNL d   1      25.090   4.873  36.659  0.00  0.00     0.202 C 
ENDBRANCH  26  27
BRANCH  26  29
ATOM     29  C   UNL d   1      26.526   6.976  37.368  0.00  0.00     0.005 C 
ATOM     30  C   UNL d   1      26.758   7.808  36.353  0.00  0.00    -0.001 C 
BRANCH  30  31
ATOM     31  C   UNL d   1      27.703   8.901  36.416  0.00  0.00     0.000 C 
ATOM     32  C   UNL d   1      28.317   9.253  37.570  0.00  0.00     0.006 C 
BRANCH  32  33
ATOM     33  C   UNL d   1      28.948  10.539  37.828  0.00  0.00    -0.066 C 
ATOM     34  C   UNL d   1      29.463  10.775  39.046  0.00  0.00    -0.024 C 
ATOM     35  C   UNL d   1      30.130  12.015  39.471  0.00  0.00     0.036 C 
ATOM     36  C   UNL d   1      28.982  11.530  36.712  0.00  0.00     0.048 C 
ENDBRANCH  32  33
ENDBRANCH  30  31
ENDBRANCH  26  29
ENDBRANCH  24  26
ENDBRANCH  23  24
BRANCH  23  37
ATOM     37  O   UNL d   1      24.038   7.559  40.459  0.00  0.00    -0.390 OA
ATOM     38  C   UNL d   1      22.738   7.678  41.031  0.00  0.00     0.202 C 
ENDBRANCH  23  37
ENDBRANCH  21  23
ENDBRANCH  20  21
ENDBRANCH   1  20
TORSDOF 14
ENDMDL
