REMARK  14 active torsions:
REMARK  status: ('A' for Active; 'I' for Inactive)
REMARK    1  A    between atoms: C_1  and  C_13 
REMARK    2  A    between atoms: C_6  and  O_33 
REMARK    3  A    between atoms: C_9  and  O_34 
REMARK    4  A    between atoms: C_11  and  O_35 
REMARK    5  A    between atoms: C_13  and  C_14 
REMARK    6  A    between atoms: C_14  and  C_15 
REMARK    7  A    between atoms: C_15  and  C_16 
REMARK    8  A    between atoms: C_16  and  C_17 
REMARK    9  A    between atoms: C_16  and  O_36 
REMARK   10  A    between atoms: C_17  and  C_18 
REMARK   11  A    between atoms: C_18  and  O_37 
REMARK   12  A    between atoms: C_18  and  C_19 
REMARK   13  A    between atoms: C_20  and  C_21 
REMARK   14  A    between atoms: C_22  and  C_23 
ROOT
ATOM      1  C   UNL d   1       6.922 128.746  81.367  0.00  0.00     0.066 C 
ENDROOT
BRANCH   1   2
ATOM      2  C   UNL d   1       6.038 129.962  81.538  0.00  0.00     0.063 A 
ATOM      3  O   UNL d   1       6.676 131.057  80.972  0.00  0.00    -0.310 OA
ATOM      4  C   UNL d   1       6.055 132.290  80.967  0.00  0.00     0.128 A 
ATOM      5  C   UNL d   1       6.805 133.336  80.362  0.00  0.00     0.134 A 
ATOM      6  C   UNL d   1       4.765 132.487  81.529  0.00  0.00     0.085 A 
ATOM      7  C   UNL d   1       6.205 134.673  80.299  0.00  0.00     0.106 A 
ATOM      8  C   UNL d   1       4.912 134.887  80.838  0.00  0.00     0.077 A 
ATOM      9  C   UNL d   1       4.196 133.810  81.447  0.00  0.00     0.088 A 
ATOM     10  C   UNL d   1       4.067 131.345  82.155  0.00  0.00     0.196 A 
ATOM     11  C   UNL d   1       4.801 130.052  82.121  0.00  0.00     0.019 A 
ATOM     12  O   UNL d   1       2.947 131.440  82.674  0.00  0.00    -0.287 OA
ATOM     13  C   UNL d   1       4.118 128.889  82.733  0.00  0.00     0.055 C 
BRANCH   5  14
ATOM     14  O   UNL d   1       8.066 133.134  79.835  0.00  0.00    -0.356 OA
ATOM     15  H   UNL d   1       8.316 132.225  79.950  0.00  0.00     0.218 HD
ENDBRANCH   5  14
BRANCH   7  16
ATOM     16  O   UNL d   1       6.957 135.686  79.696  0.00  0.00    -0.353 OA
ATOM     17  C   UNL d   1       6.544 136.095  78.374  0.00  0.00     0.210 C 
ENDBRANCH   7  16
BRANCH   9  18
ATOM     18  O   UNL d   1       2.943 133.939  81.984  0.00  0.00    -0.355 OA
ATOM     19  C   UNL d   1       2.322 135.219  81.920  0.00  0.00     0.210 C 
ENDBRANCH   9  18
ENDBRANCH   1   2
BRANCH   1  20
ATOM     20  C   UNL d   1       7.643 128.230  82.593  0.00  0.00     0.013 C 
BRANCH  20  21
ATOM     21  C   UNL d   1       8.808 127.329  82.184  0.00  0.00     0.011 C 
ATOM     22  C   UNL d   1       8.313 126.179  81.331  0.00  0.00     0.012 C 
BRANCH  21  23
ATOM     23  C   UNL d   1       9.588 126.771  83.412  0.00  0.00     0.131 C 
BRANCH  23  24
ATOM     24  C   UNL d   1      10.440 127.861  84.142  0.00  0.00     0.044 C 
ATOM     25  C   UNL d   1      11.494 128.441  83.190  0.00  0.00     0.015 C 
BRANCH  24  26
ATOM     26  C   UNL d   1      11.103 127.309  85.433  0.00  0.00     0.149 C 
BRANCH  26  27
ATOM     27  O   UNL d   1      12.469 127.045  85.155  0.00  0.00    -0.386 OA
ATOM     28  C   UNL d   1      12.783 125.668  85.168  0.00  0.00     0.202 C 
ENDBRANCH  26  27
BRANCH  26  29
ATOM     29  C   UNL d   1      10.976 128.298  86.507  0.00  0.00     0.005 C 
ATOM     30  C   UNL d   1      11.843 128.440  87.509  0.00  0.00    -0.001 C 
BRANCH  30  31
ATOM     31  C   UNL d   1      12.582 129.657  87.760  0.00  0.00     0.000 C 
ATOM     32  C   UNL d   1      13.453 129.768  88.790  0.00  0.00     0.006 C 
BRANCH  32  33
ATOM     33  C   UNL d   1      13.926 131.021  89.361  0.00  0.00    -0.066 C 
ATOM     34  C   UNL d   1      15.166 131.442  89.063  0.00  0.00    -0.024 C 
ATOM     35  C   UNL d   1      15.795 132.678  89.553  0.00  0.00     0.036 C 
ATOM     36  C   UNL d   1      12.994 131.769  90.256  0.00  0.00     0.048 C 
ENDBRANCH  32  33
ENDBRANCH  30  31
ENDBRANCH  26  29
ENDBRANCH  24  26
ENDBRANCH  23  24
BRANCH  23  37
ATOM     37  O   UNL d   1       8.642 126.222  84.362  0.00  0.00    -0.390 OA
ATOM     38  C   UNL d   1       8.657 124.803  84.502  0.00  0.00     0.202 C 
ENDBRANCH  23  37
ENDBRANCH  21  23
ENDBRANCH  20  21
ENDBRANCH   1  20
TORSDOF 14
