MODEL 1
REMARK VINA RESULT:      -7.5      0.000      0.000
REMARK  10 active torsions:
REMARK  status: ('A' for Active; 'I' for Inactive)
REMARK    1  A    between atoms: O_4  and  C_21 
REMARK    2  A    between atoms: O_4  and  C_26 
REMARK    3  A    between atoms: O_5  and  C_22 
REMARK    4  A    between atoms: O_8  and  N_12 
REMARK    5  A    between atoms: CA_16  and  N_11 
REMARK       I    between atoms: N_11  and  C_23 
REMARK    6  A    between atoms: N_14  and  C_29 
REMARK    7  A    between atoms: CA_18  and  C_22 
REMARK    8  A    between atoms: C_19  and  C_21 
REMARK    9  A    between atoms: C_23  and  C_24 
REMARK   10  A    between atoms: C_24  and  C_25 
ROOT
ATOM      1  S   UNL d   1      38.538  -9.651  -1.974  0.00  0.00    -0.136 SA
ATOM      2  O   UNL d   1      41.923  -7.421  -2.829  0.00  0.00    -0.271 OA
ATOM      3  N   UNL d   1      39.700  -7.264  -2.156  0.00  0.00    -0.293 N 
ATOM      4  C   UNL d   1      38.719  -8.078  -2.871  0.00  0.00     0.187 C 
ATOM      5  CA  UNL d   1      39.729  -8.033  -4.075  0.00  0.00     0.211 C 
ATOM      6  C   UNL d   1      40.741  -7.585  -2.977  0.00  0.00     0.251 C 
ATOM      7  CA  UNL d   1      39.666  -7.022  -0.799  0.00  0.00     0.117 C 
ATOM      8  C   UNL d   1      38.839  -7.731   0.026  0.00  0.00    -0.013 C 
ATOM      9  C   UNL d   1      37.933  -8.845  -0.453  0.00  0.00     0.115 C 
ENDROOT
BRANCH   5  10
ATOM     10  N   UNL d   1      39.863  -9.271  -4.923  0.00  0.00    -0.339 N 
ATOM     11  C   UNL d   1      39.146  -9.275  -6.118  0.00  0.00     0.275 C 
ATOM     12  O   UNL d   1      39.192 -10.256  -6.862  0.00  0.00    -0.266 OA
ATOM     13  H   UNL d   1      40.571  -9.981  -4.772  0.00  0.00     0.163 HD
BRANCH  11  14
ATOM     14  C   UNL d   1      38.303  -8.077  -6.569  0.00  0.00     0.180 C 
ATOM     15  N   UNL d   1      38.620  -7.100  -7.365  0.00  0.00    -0.126 NA
BRANCH  15  16
ATOM     16  O   UNL d   1      39.899  -7.116  -7.921  0.00  0.00    -0.261 OA
ATOM     17  C   UNL d   1      39.737  -7.532  -9.289  0.00  0.00     0.240 C 
ENDBRANCH  15  16
BRANCH  14  18
ATOM     18  C   UNL d   1      36.987  -7.918  -5.931  0.00  0.00     0.102 A 
ATOM     19  N   UNL d   1      36.431  -8.916  -5.141  0.00  0.00    -0.222 NA
ATOM     20  C   UNL d   1      35.336  -8.486  -4.568  0.00  0.00     0.164 A 
ATOM     21  S   UNL d   1      34.840  -6.905  -5.006  0.00  0.00    -0.062 SA
ATOM     22  C   UNL d   1      36.223  -6.763  -6.005  0.00  0.00     0.087 A 
BRANCH  20  23
ATOM     23  N   UNL d   1      34.634  -9.222  -3.694  0.00  0.00    -0.378 N 
ATOM     24  H   UNL d   1      34.986  -9.341  -2.754  0.00  0.00     0.158 HD
ATOM     25  H   UNL d   1      33.626  -9.181  -3.782  0.00  0.00     0.158 HD
ENDBRANCH  20  23
ENDBRANCH  14  18
ENDBRANCH  11  14
ENDBRANCH   5  10
BRANCH   7  26
ATOM     26  C   UNL d   1      40.472  -5.849  -0.265  0.00  0.00     0.194 C 
ATOM     27  OXT UNL d   1      39.968  -4.781   0.058  0.00  0.00    -0.645 OA
BRANCH  26  28
ATOM     28  O   UNL d   1      41.805  -6.004  -0.311  0.00  0.00    -0.772 OA
ATOM     29  H   UNL d   1      42.206  -5.941  -1.204  0.00  0.00     0.167 HD
ENDBRANCH  26  28
ENDBRANCH   7  26
BRANCH   8  30
ATOM     30  C   UNL d   1      38.782  -7.538   1.534  0.00  0.00     0.216 C 
BRANCH  30  31
ATOM     31  O   UNL d   1      37.480  -7.077   1.928  0.00  0.00    -0.317 OA
BRANCH  31  32
ATOM     32  C   UNL d   1      36.986  -7.584   3.088  0.00  0.00     0.255 C 
ATOM     33  O   UNL d   1      36.300  -6.975   3.894  0.00  0.00    -0.266 OA
ATOM     34  C   UNL d   1      37.395  -9.018   3.235  0.00  0.00     0.126 C 
ENDBRANCH  31  32
ENDBRANCH  30  31
ENDBRANCH   8  30
TORSDOF 10
ENDMDL
MODEL 2
REMARK VINA RESULT:      -7.3      1.975      2.463
REMARK  10 active torsions:
REMARK  status: ('A' for Active; 'I' for Inactive)
REMARK    1  A    between atoms: O_4  and  C_21 
REMARK    2  A    between atoms: O_4  and  C_26 
REMARK    3  A    between atoms: O_5  and  C_22 
REMARK    4  A    between atoms: O_8  and  N_12 
REMARK    5  A    between atoms: CA_16  and  N_11 
REMARK       I    between atoms: N_11  and  C_23 
REMARK    6  A    between atoms: N_14  and  C_29 
REMARK    7  A    between atoms: CA_18  and  C_22 
REMARK    8  A    between atoms: C_19  and  C_21 
REMARK    9  A    between atoms: C_23  and  C_24 
REMARK   10  A    between atoms: C_24  and  C_25 
ROOT
ATOM      1  S   UNL d   1      37.480  -8.504  -2.924  0.00  0.00    -0.136 SA
ATOM      2  O   UNL d   1      41.571  -8.676  -2.291  0.00  0.00    -0.271 OA
ATOM      3  N   UNL d   1      39.777  -7.215  -2.543  0.00  0.00    -0.293 N 
ATOM      4  C   UNL d   1      38.825  -7.492  -3.617  0.00  0.00     0.187 C 
ATOM      5  CA  UNL d   1      40.015  -8.239  -4.324  0.00  0.00     0.211 C 
ATOM      6  C   UNL d   1      40.649  -8.201  -2.899  0.00  0.00     0.251 C 
ATOM      7  CA  UNL d   1      39.425  -6.730  -1.301  0.00  0.00     0.117 C 
ATOM      8  C   UNL d   1      38.120  -6.700  -0.897  0.00  0.00    -0.013 C 
ATOM      9  C   UNL d   1      36.972  -7.217  -1.736  0.00  0.00     0.115 C 
ENDROOT
BRANCH   5  10
ATOM     10  N   UNL d   1      39.695  -9.492  -5.096  0.00  0.00    -0.339 N 
ATOM     11  C   UNL d   1      39.711  -9.376  -6.485  0.00  0.00     0.275 C 
ATOM     12  O   UNL d   1      39.446 -10.352  -7.188  0.00  0.00    -0.266 OA
ATOM     13  H   UNL d   1      39.668 -10.417  -4.681  0.00  0.00     0.163 HD
BRANCH  11  14
ATOM     14  C   UNL d   1      40.072  -8.064  -7.190  0.00  0.00     0.180 C 
ATOM     15  N   UNL d   1      41.222  -7.465  -7.276  0.00  0.00    -0.126 NA
BRANCH  15  16
ATOM     16  O   UNL d   1      42.312  -8.081  -6.660  0.00  0.00    -0.261 OA
ATOM     17  C   UNL d   1      43.132  -8.600  -7.723  0.00  0.00     0.240 C 
ENDBRANCH  15  16
BRANCH  14  18
ATOM     18  C   UNL d   1      38.957  -7.289  -7.756  0.00  0.00     0.102 A 
ATOM     19  N   UNL d   1      38.011  -6.670  -6.950  0.00  0.00    -0.222 NA
ATOM     20  C   UNL d   1      37.214  -5.924  -7.672  0.00  0.00     0.164 A 
ATOM     21  S   UNL d   1      37.474  -5.985  -9.365  0.00  0.00    -0.062 SA
ATOM     22  C   UNL d   1      38.784  -7.057  -9.112  0.00  0.00     0.087 A 
BRANCH  20  23
ATOM     23  N   UNL d   1      36.254  -5.157  -7.138  0.00  0.00    -0.378 N 
ATOM     24  H   UNL d   1      35.839  -4.424  -7.698  0.00  0.00     0.158 HD
ATOM     25  H   UNL d   1      35.631  -5.611  -6.481  0.00  0.00     0.158 HD
ENDBRANCH  20  23
ENDBRANCH  14  18
ENDBRANCH  11  14
ENDBRANCH   5  10
BRANCH   7  26
ATOM     26  C   UNL d   1      40.514  -6.100  -0.449  0.00  0.00     0.194 C 
ATOM     27  OXT UNL d   1      40.678  -4.890  -0.356  0.00  0.00    -0.645 OA
BRANCH  26  28
ATOM     28  O   UNL d   1      41.394  -6.963   0.084  0.00  0.00    -0.772 OA
ATOM     29  H   UNL d   1      41.015  -7.813   0.396  0.00  0.00     0.167 HD
ENDBRANCH  26  28
ENDBRANCH   7  26
BRANCH   8  30
ATOM     30  C   UNL d   1      37.671  -6.213   0.473  0.00  0.00     0.216 C 
BRANCH  30  31
ATOM     31  O   UNL d   1      37.207  -7.316   1.267  0.00  0.00    -0.317 OA
BRANCH  31  32
ATOM     32  C   UNL d   1      38.019  -7.714   2.280  0.00  0.00     0.255 C 
ATOM     33  O   UNL d   1      39.224  -7.521   2.343  0.00  0.00    -0.266 OA
ATOM     34  C   UNL d   1      37.219  -8.418   3.333  0.00  0.00     0.126 C 
ENDBRANCH  31  32
ENDBRANCH  30  31
ENDBRANCH   8  30
TORSDOF 10
ENDMDL
MODEL 3
REMARK VINA RESULT:      -7.2      2.739      8.328
REMARK  10 active torsions:
REMARK  status: ('A' for Active; 'I' for Inactive)
REMARK    1  A    between atoms: O_4  and  C_21 
REMARK    2  A    between atoms: O_4  and  C_26 
REMARK    3  A    between atoms: O_5  and  C_22 
REMARK    4  A    between atoms: O_8  and  N_12 
REMARK    5  A    between atoms: CA_16  and  N_11 
REMARK       I    between atoms: N_11  and  C_23 
REMARK    6  A    between atoms: N_14  and  C_29 
REMARK    7  A    between atoms: CA_18  and  C_22 
REMARK    8  A    between atoms: C_19  and  C_21 
REMARK    9  A    between atoms: C_23  and  C_24 
REMARK   10  A    between atoms: C_24  and  C_25 
ROOT
ATOM      1  S   UNL d   1      36.090  -6.216  -5.202  0.00  0.00    -0.136 SA
ATOM      2  O   UNL d   1      40.212  -6.474  -5.541  0.00  0.00    -0.271 OA
ATOM      3  N   UNL d   1      38.231  -7.652  -5.865  0.00  0.00    -0.293 N 
ATOM      4  C   UNL d   1      37.224  -7.584  -4.808  0.00  0.00     0.187 C 
ATOM      5  CA  UNL d   1      38.426  -7.285  -3.840  0.00  0.00     0.211 C 
ATOM      6  C   UNL d   1      39.182  -6.970  -5.167  0.00  0.00     0.251 C 
ATOM      7  CA  UNL d   1      37.940  -7.664  -7.213  0.00  0.00     0.117 C 
ATOM      8  C   UNL d   1      36.687  -7.369  -7.670  0.00  0.00    -0.013 C 
ATOM      9  C   UNL d   1      35.538  -6.973  -6.767  0.00  0.00     0.115 C 
ENDROOT
BRANCH   5  10
ATOM     10  N   UNL d   1      38.195  -6.304  -2.720  0.00  0.00    -0.339 N 
ATOM     11  C   UNL d   1      38.800  -6.611  -1.503  0.00  0.00     0.275 C 
ATOM     12  O   UNL d   1      38.649  -5.866  -0.534  0.00  0.00    -0.266 OA
ATOM     13  H   UNL d   1      37.808  -5.376  -2.857  0.00  0.00     0.163 HD
BRANCH  11  14
ATOM     14  C   UNL d   1      39.683  -7.850  -1.320  0.00  0.00     0.180 C 
ATOM     15  N   UNL d   1      39.353  -9.048  -0.943  0.00  0.00    -0.126 NA
BRANCH  15  16
ATOM     16  O   UNL d   1      38.005  -9.284  -0.668  0.00  0.00    -0.261 OA
ATOM     17  C   UNL d   1      37.518 -10.119  -1.734  0.00  0.00     0.240 C 
ENDBRANCH  15  16
BRANCH  14  18
ATOM     18  C   UNL d   1      41.134  -7.655  -1.468  0.00  0.00     0.102 A 
ATOM     19  N   UNL d   1      41.855  -6.837  -0.608  0.00  0.00    -0.222 NA
ATOM     20  C   UNL d   1      43.137  -6.942  -0.847  0.00  0.00     0.164 A 
ATOM     21  S   UNL d   1      43.566  -7.942  -2.171  0.00  0.00    -0.062 SA
ATOM     22  C   UNL d   1      41.910  -8.301  -2.418  0.00  0.00     0.087 A 
BRANCH  20  23
ATOM     23  N   UNL d   1      44.068  -6.315  -0.114  0.00  0.00    -0.378 N 
ATOM     24  H   UNL d   1      45.039  -6.570  -0.226  0.00  0.00     0.158 HD
ATOM     25  H   UNL d   1      43.893  -5.338   0.092  0.00  0.00     0.158 HD
ENDBRANCH  20  23
ENDBRANCH  14  18
ENDBRANCH  11  14
ENDBRANCH   5  10
BRANCH   7  26
ATOM     26  C   UNL d   1      39.016  -8.153  -8.169  0.00  0.00     0.194 C 
ATOM     27  OXT UNL d   1      39.190  -9.335  -8.437  0.00  0.00    -0.645 OA
BRANCH  26  28
ATOM     28  O   UNL d   1      39.876  -7.211  -8.590  0.00  0.00    -0.772 OA
ATOM     29  H   UNL d   1      40.186  -6.585  -7.902  0.00  0.00     0.167 HD
ENDBRANCH  26  28
ENDBRANCH   7  26
BRANCH   8  30
ATOM     30  C   UNL d   1      36.312  -7.329  -9.144  0.00  0.00     0.216 C 
BRANCH  30  31
ATOM     31  O   UNL d   1      36.406  -5.986  -9.646  0.00  0.00    -0.317 OA
BRANCH  31  32
ATOM     32  C   UNL d   1      37.380  -5.753 -10.564  0.00  0.00     0.255 C 
ATOM     33  O   UNL d   1      38.447  -5.201 -10.343  0.00  0.00    -0.266 OA
ATOM     34  C   UNL d   1      36.964  -6.287 -11.900  0.00  0.00     0.126 C 
ENDBRANCH  31  32
ENDBRANCH  30  31
ENDBRANCH   8  30
TORSDOF 10
ENDMDL
MODEL 4
REMARK VINA RESULT:      -7.1      2.823      8.264
REMARK  10 active torsions:
REMARK  status: ('A' for Active; 'I' for Inactive)
REMARK    1  A    between atoms: O_4  and  C_21 
REMARK    2  A    between atoms: O_4  and  C_26 
REMARK    3  A    between atoms: O_5  and  C_22 
REMARK    4  A    between atoms: O_8  and  N_12 
REMARK    5  A    between atoms: CA_16  and  N_11 
REMARK       I    between atoms: N_11  and  C_23 
REMARK    6  A    between atoms: N_14  and  C_29 
REMARK    7  A    between atoms: CA_18  and  C_22 
REMARK    8  A    between atoms: C_19  and  C_21 
REMARK    9  A    between atoms: C_23  and  C_24 
REMARK   10  A    between atoms: C_24  and  C_25 
ROOT
ATOM      1  S   UNL d   1      39.112  -9.369  -5.313  0.00  0.00    -0.136 SA
ATOM      2  O   UNL d   1      35.434  -7.730  -4.337  0.00  0.00    -0.271 OA
ATOM      3  N   UNL d   1      37.507  -7.246  -5.278  0.00  0.00    -0.293 N 
ATOM      4  C   UNL d   1      38.695  -7.751  -4.591  0.00  0.00     0.187 C 
ATOM      5  CA  UNL d   1      37.810  -7.734  -3.292  0.00  0.00     0.211 C 
ATOM      6  C   UNL d   1      36.633  -7.643  -4.310  0.00  0.00     0.251 C 
ATOM      7  CA  UNL d   1      37.368  -7.192  -6.648  0.00  0.00     0.117 C 
ATOM      8  C   UNL d   1      38.245  -7.836  -7.475  0.00  0.00    -0.013 C 
ATOM      9  C   UNL d   1      39.399  -8.680  -6.977  0.00  0.00     0.115 C 
ENDROOT
BRANCH   5  10
ATOM     10  N   UNL d   1      38.010  -8.846  -2.295  0.00  0.00    -0.339 N 
ATOM     11  C   UNL d   1      38.938  -8.604  -1.285  0.00  0.00     0.275 C 
ATOM     12  O   UNL d   1      39.169  -9.468  -0.438  0.00  0.00    -0.266 OA
ATOM     13  H   UNL d   1      37.387  -9.642  -2.209  0.00  0.00     0.163 HD
BRANCH  11  14
ATOM     14  C   UNL d   1      39.685  -7.271  -1.165  0.00  0.00     0.180 C 
ATOM     15  N   UNL d   1      39.211  -6.073  -0.994  0.00  0.00    -0.126 NA
BRANCH  15  16
ATOM     16  O   UNL d   1      37.826  -5.943  -0.887  0.00  0.00    -0.261 OA
ATOM     17  C   UNL d   1      37.521  -6.047   0.516  0.00  0.00     0.240 C 
ENDBRANCH  15  16
BRANCH  14  18
ATOM     18  C   UNL d   1      41.138  -7.305  -1.393  0.00  0.00     0.102 A 
ATOM     19  N   UNL d   1      42.022  -6.588  -0.597  0.00  0.00    -0.222 NA
ATOM     20  C   UNL d   1      43.258  -6.896  -0.896  0.00  0.00     0.164 A 
ATOM     21  S   UNL d   1      43.455  -7.981  -2.208  0.00  0.00    -0.062 SA
ATOM     22  C   UNL d   1      41.753  -8.086  -2.360  0.00  0.00     0.087 A 
BRANCH  20  23
ATOM     23  N   UNL d   1      44.312  -6.403  -0.232  0.00  0.00    -0.378 N 
ATOM     24  H   UNL d   1      44.436  -5.401  -0.175  0.00  0.00     0.158 HD
ATOM     25  H   UNL d   1      44.617  -6.928   0.579  0.00  0.00     0.158 HD
ENDBRANCH  20  23
ENDBRANCH  14  18
ENDBRANCH  11  14
ENDBRANCH   5  10
BRANCH   7  26
ATOM     26  C   UNL d   1      36.295  -6.280  -7.219  0.00  0.00     0.194 C 
ATOM     27  OXT UNL d   1      35.375  -6.682  -7.920  0.00  0.00    -0.645 OA
BRANCH  26  28
ATOM     28  O   UNL d   1      36.504  -4.966  -7.032  0.00  0.00    -0.772 OA
ATOM     29  H   UNL d   1      35.946  -4.369  -7.575  0.00  0.00     0.167 HD
ENDBRANCH  26  28
ENDBRANCH   7  26
BRANCH   8  30
ATOM     30  C   UNL d   1      38.125  -7.846  -8.992  0.00  0.00     0.216 C 
BRANCH  30  31
ATOM     31  O   UNL d   1      38.864  -6.751  -9.557  0.00  0.00    -0.317 OA
BRANCH  31  32
ATOM     32  C   UNL d   1      38.167  -5.902 -10.356  0.00  0.00     0.255 C 
ATOM     33  O   UNL d   1      38.332  -4.694 -10.424  0.00  0.00    -0.266 OA
ATOM     34  C   UNL d   1      37.164  -6.666 -11.165  0.00  0.00     0.126 C 
ENDBRANCH  31  32
ENDBRANCH  30  31
ENDBRANCH   8  30
TORSDOF 10
ENDMDL
MODEL 5
REMARK VINA RESULT:      -6.8     13.004     18.102
REMARK  10 active torsions:
REMARK  status: ('A' for Active; 'I' for Inactive)
REMARK    1  A    between atoms: O_4  and  C_21 
REMARK    2  A    between atoms: O_4  and  C_26 
REMARK    3  A    between atoms: O_5  and  C_22 
REMARK    4  A    between atoms: O_8  and  N_12 
REMARK    5  A    between atoms: CA_16  and  N_11 
REMARK       I    between atoms: N_11  and  C_23 
REMARK    6  A    between atoms: N_14  and  C_29 
REMARK    7  A    between atoms: CA_18  and  C_22 
REMARK    8  A    between atoms: C_19  and  C_21 
REMARK    9  A    between atoms: C_23  and  C_24 
REMARK   10  A    between atoms: C_24  and  C_25 
ROOT
ATOM      1  S   UNL d   1      36.679 -12.608  11.035  0.00  0.00    -0.136 SA
ATOM      2  O   UNL d   1      37.097 -10.924  14.798  0.00  0.00    -0.271 OA
ATOM      3  N   UNL d   1      38.008 -10.969  12.657  0.00  0.00    -0.293 N 
ATOM      4  C   UNL d   1      38.173 -12.274  12.019  0.00  0.00     0.187 C 
ATOM      5  CA  UNL d   1      38.233 -12.852  13.480  0.00  0.00     0.211 C 
ATOM      6  C   UNL d   1      37.610 -11.473  13.859  0.00  0.00     0.251 C 
ATOM      7  CA  UNL d   1      37.626  -9.824  11.990  0.00  0.00     0.117 C 
ATOM      8  C   UNL d   1      37.135  -9.876  10.716  0.00  0.00    -0.013 C 
ATOM      9  C   UNL d   1      36.934 -11.165   9.949  0.00  0.00     0.115 C 
ENDROOT
BRANCH   5  10
ATOM     10  N   UNL d   1      37.589 -14.191  13.730  0.00  0.00    -0.339 N 
ATOM     11  C   UNL d   1      38.285 -15.057  14.572  0.00  0.00     0.275 C 
ATOM     12  O   UNL d   1      37.831 -16.176  14.816  0.00  0.00    -0.266 OA
ATOM     13  H   UNL d   1      36.627 -14.406  13.491  0.00  0.00     0.163 HD
BRANCH  11  14
ATOM     14  C   UNL d   1      39.606 -14.660  15.240  0.00  0.00     0.180 C 
ATOM     15  N   UNL d   1      40.825 -14.876  14.846  0.00  0.00    -0.126 NA
BRANCH  15  16
ATOM     16  O   UNL d   1      40.997 -15.552  13.637  0.00  0.00    -0.261 OA
ATOM     17  C   UNL d   1      42.168 -16.374  13.801  0.00  0.00     0.240 C 
ENDBRANCH  15  16
BRANCH  14  18
ATOM     18  C   UNL d   1      39.514 -14.055  16.578  0.00  0.00     0.102 A 
ATOM     19  N   UNL d   1      40.395 -13.067  16.997  0.00  0.00    -0.222 NA
ATOM     20  C   UNL d   1      40.021 -12.584  18.154  0.00  0.00     0.164 A 
ATOM     21  S   UNL d   1      38.657 -13.339  18.867  0.00  0.00    -0.062 SA
ATOM     22  C   UNL d   1      38.525 -14.361  17.501  0.00  0.00     0.087 A 
BRANCH  20  23
ATOM     23  N   UNL d   1      40.653 -11.568  18.758  0.00  0.00    -0.378 N 
ATOM     24  H   UNL d   1      40.120 -10.763  19.057  0.00  0.00     0.158 HD
ATOM     25  H   UNL d   1      41.440 -11.815  19.346  0.00  0.00     0.158 HD
ENDBRANCH  20  23
ENDBRANCH  14  18
ENDBRANCH  11  14
ENDBRANCH   5  10
BRANCH   7  26
ATOM     26  C   UNL d   1      37.898  -8.487  12.661  0.00  0.00     0.194 C 
ATOM     27  OXT UNL d   1      37.046  -7.860  13.277  0.00  0.00    -0.645 OA
BRANCH  26  28
ATOM     28  O   UNL d   1      39.104  -7.955  12.405  0.00  0.00    -0.772 OA
ATOM     29  H   UNL d   1      39.801  -8.594  12.143  0.00  0.00     0.167 HD
ENDBRANCH  26  28
ENDBRANCH   7  26
BRANCH   8  30
ATOM     30  C   UNL d   1      36.663  -8.654   9.942  0.00  0.00     0.216 C 
BRANCH  30  31
ATOM     31  O   UNL d   1      37.547  -8.390   8.841  0.00  0.00    -0.317 OA
BRANCH  31  32
ATOM     32  C   UNL d   1      38.244  -7.226   8.893  0.00  0.00     0.255 C 
ATOM     33  O   UNL d   1      39.023  -6.903   9.777  0.00  0.00    -0.266 OA
ATOM     34  C   UNL d   1      37.933  -6.387   7.691  0.00  0.00     0.126 C 
ENDBRANCH  31  32
ENDBRANCH  30  31
ENDBRANCH   8  30
TORSDOF 10
ENDMDL
MODEL 6
REMARK VINA RESULT:      -6.8     11.896     17.222
REMARK  10 active torsions:
REMARK  status: ('A' for Active; 'I' for Inactive)
REMARK    1  A    between atoms: O_4  and  C_21 
REMARK    2  A    between atoms: O_4  and  C_26 
REMARK    3  A    between atoms: O_5  and  C_22 
REMARK    4  A    between atoms: O_8  and  N_12 
REMARK    5  A    between atoms: CA_16  and  N_11 
REMARK       I    between atoms: N_11  and  C_23 
REMARK    6  A    between atoms: N_14  and  C_29 
REMARK    7  A    between atoms: CA_18  and  C_22 
REMARK    8  A    between atoms: C_19  and  C_21 
REMARK    9  A    between atoms: C_23  and  C_24 
REMARK   10  A    between atoms: C_24  and  C_25 
ROOT
ATOM      1  S   UNL d   1      36.156 -11.850  12.142  0.00  0.00    -0.136 SA
ATOM      2  O   UNL d   1      37.517  -8.152  13.421  0.00  0.00    -0.271 OA
ATOM      3  N   UNL d   1      37.808  -9.793  11.796  0.00  0.00    -0.293 N 
ATOM      4  C   UNL d   1      37.847 -11.185  12.241  0.00  0.00     0.187 C 
ATOM      5  CA  UNL d   1      38.329 -10.610  13.623  0.00  0.00     0.211 C 
ATOM      6  C   UNL d   1      37.776  -9.267  13.054  0.00  0.00     0.251 C 
ATOM      7  CA  UNL d   1      37.211  -9.369  10.628  0.00  0.00     0.117 C 
ATOM      8  C   UNL d   1      36.393 -10.195   9.911  0.00  0.00    -0.013 C 
ATOM      9  C   UNL d   1      36.043 -11.604  10.338  0.00  0.00     0.115 C 
ENDROOT
BRANCH   5  10
ATOM     10  N   UNL d   1      37.835 -11.288  14.874  0.00  0.00    -0.339 N 
ATOM     11  C   UNL d   1      38.549 -12.412  15.284  0.00  0.00     0.275 C 
ATOM     12  O   UNL d   1      38.200 -13.032  16.290  0.00  0.00    -0.266 OA
ATOM     13  H   UNL d   1      37.165 -10.871  15.513  0.00  0.00     0.163 HD
BRANCH  11  14
ATOM     14  C   UNL d   1      39.790 -12.909  14.534  0.00  0.00     0.180 C 
ATOM     15  N   UNL d   1      39.876 -13.765  13.560  0.00  0.00    -0.126 NA
BRANCH  15  16
ATOM     16  O   UNL d   1      38.686 -14.326  13.094  0.00  0.00    -0.261 OA
ATOM     17  C   UNL d   1      38.317 -15.336  14.050  0.00  0.00     0.240 C 
ENDBRANCH  15  16
BRANCH  14  18
ATOM     18  C   UNL d   1      41.094 -12.462  15.046  0.00  0.00     0.102 A 
ATOM     19  N   UNL d   1      41.382 -12.448  16.405  0.00  0.00    -0.222 NA
ATOM     20  C   UNL d   1      42.643 -12.158  16.601  0.00  0.00     0.164 A 
ATOM     21  S   UNL d   1      43.546 -11.788  15.193  0.00  0.00    -0.062 SA
ATOM     22  C   UNL d   1      42.156 -12.082  14.239  0.00  0.00     0.087 A 
BRANCH  20  23
ATOM     23  N   UNL d   1      43.206 -12.146  17.817  0.00  0.00    -0.378 N 
ATOM     24  H   UNL d   1      44.041 -12.693  17.980  0.00  0.00     0.158 HD
ATOM     25  H   UNL d   1      43.147 -11.275  18.330  0.00  0.00     0.158 HD
ENDBRANCH  20  23
ENDBRANCH  14  18
ENDBRANCH  11  14
ENDBRANCH   5  10
BRANCH   7  26
ATOM     26  C   UNL d   1      37.600  -8.003  10.086  0.00  0.00     0.194 C 
ATOM     27  OXT UNL d   1      38.638  -7.796   9.470  0.00  0.00    -0.645 OA
BRANCH  26  28
ATOM     28  O   UNL d   1      36.798  -6.992  10.458  0.00  0.00    -0.772 OA
ATOM     29  H   UNL d   1      36.874  -6.717  11.396  0.00  0.00     0.167 HD
ENDBRANCH  26  28
ENDBRANCH   7  26
BRANCH   8  30
ATOM     30  C   UNL d   1      35.676  -9.776   8.636  0.00  0.00     0.216 C 
BRANCH  30  31
ATOM     31  O   UNL d   1      36.628  -9.494   7.598  0.00  0.00    -0.317 OA
BRANCH  31  32
ATOM     32  C   UNL d   1      36.123  -9.032   6.425  0.00  0.00     0.255 C 
ATOM     33  O   UNL d   1      35.225  -9.555   5.783  0.00  0.00    -0.266 OA
ATOM     34  C   UNL d   1      36.819  -7.765   6.031  0.00  0.00     0.126 C 
ENDBRANCH  31  32
ENDBRANCH  30  31
ENDBRANCH   8  30
TORSDOF 10
ENDMDL
MODEL 7
REMARK VINA RESULT:      -6.8      2.509      3.849
REMARK  10 active torsions:
REMARK  status: ('A' for Active; 'I' for Inactive)
REMARK    1  A    between atoms: O_4  and  C_21 
REMARK    2  A    between atoms: O_4  and  C_26 
REMARK    3  A    between atoms: O_5  and  C_22 
REMARK    4  A    between atoms: O_8  and  N_12 
REMARK    5  A    between atoms: CA_16  and  N_11 
REMARK       I    between atoms: N_11  and  C_23 
REMARK    6  A    between atoms: N_14  and  C_29 
REMARK    7  A    between atoms: CA_18  and  C_22 
REMARK    8  A    between atoms: C_19  and  C_21 
REMARK    9  A    between atoms: C_23  and  C_24 
REMARK   10  A    between atoms: C_24  and  C_25 
ROOT
ATOM      1  S   UNL d   1      37.494  -8.595  -2.727  0.00  0.00    -0.136 SA
ATOM      2  O   UNL d   1      41.622  -8.597  -2.371  0.00  0.00    -0.271 OA
ATOM      3  N   UNL d   1      39.756  -7.212  -2.499  0.00  0.00    -0.293 N 
ATOM      4  C   UNL d   1      38.746  -7.530  -3.507  0.00  0.00     0.187 C 
ATOM      5  CA  UNL d   1      39.916  -8.227  -4.293  0.00  0.00     0.211 C 
ATOM      6  C   UNL d   1      40.642  -8.162  -2.914  0.00  0.00     0.251 C 
ATOM      7  CA  UNL d   1      39.468  -6.741  -1.235  0.00  0.00     0.117 C 
ATOM      8  C   UNL d   1      38.194  -6.765  -0.744  0.00  0.00    -0.013 C 
ATOM      9  C   UNL d   1      37.014  -7.330  -1.504  0.00  0.00     0.115 C 
ENDROOT
BRANCH   5  10
ATOM     10  N   UNL d   1      39.597  -9.493  -5.045  0.00  0.00    -0.339 N 
ATOM     11  C   UNL d   1      39.631  -9.404  -6.435  0.00  0.00     0.275 C 
ATOM     12  O   UNL d   1      39.368 -10.392  -7.122  0.00  0.00    -0.266 OA
ATOM     13  H   UNL d   1      39.559 -10.409  -4.611  0.00  0.00     0.163 HD
BRANCH  11  14
ATOM     14  C   UNL d   1      40.010  -8.109  -7.161  0.00  0.00     0.180 C 
ATOM     15  N   UNL d   1      39.296  -7.044  -7.373  0.00  0.00    -0.126 NA
BRANCH  15  16
ATOM     16  O   UNL d   1      37.994  -7.036  -6.871  0.00  0.00    -0.261 OA
ATOM     17  C   UNL d   1      37.211  -6.262  -7.798  0.00  0.00     0.240 C 
ENDBRANCH  15  16
BRANCH  14  18
ATOM     18  C   UNL d   1      41.321  -8.086  -7.828  0.00  0.00     0.102 A 
ATOM     19  N   UNL d   1      42.490  -7.795  -7.137  0.00  0.00    -0.222 NA
ATOM     20  C   UNL d   1      43.532  -7.983  -7.905  0.00  0.00     0.164 A 
ATOM     21  S   UNL d   1      43.190  -8.421  -9.526  0.00  0.00    -0.062 SA
ATOM     22  C   UNL d   1      41.517  -8.405  -9.164  0.00  0.00     0.087 A 
BRANCH  20  23
ATOM     23  N   UNL d   1      44.792  -7.845  -7.469  0.00  0.00    -0.378 N 
ATOM     24  H   UNL d   1      45.138  -8.469  -6.753  0.00  0.00     0.158 HD
ATOM     25  H   UNL d   1      45.474  -7.547  -8.156  0.00  0.00     0.158 HD
ENDBRANCH  20  23
ENDBRANCH  14  18
ENDBRANCH  11  14
ENDBRANCH   5  10
BRANCH   7  26
ATOM     26  C   UNL d   1      40.585  -6.065  -0.456  0.00  0.00     0.194 C 
ATOM     27  OXT UNL d   1      40.677  -4.850  -0.331  0.00  0.00    -0.645 OA
BRANCH  26  28
ATOM     28  O   UNL d   1      41.563  -6.883  -0.035  0.00  0.00    -0.772 OA
ATOM     29  H   UNL d   1      41.965  -7.452  -0.726  0.00  0.00     0.167 HD
ENDBRANCH  26  28
ENDBRANCH   7  26
BRANCH   8  30
ATOM     30  C   UNL d   1      37.818  -6.296   0.654  0.00  0.00     0.216 C 
BRANCH  30  31
ATOM     31  O   UNL d   1      37.261  -7.382   1.412  0.00  0.00    -0.317 OA
BRANCH  31  32
ATOM     32  C   UNL d   1      38.015  -7.847   2.442  0.00  0.00     0.255 C 
ATOM     33  O   UNL d   1      39.202  -7.619   2.613  0.00  0.00    -0.266 OA
ATOM     34  C   UNL d   1      37.171  -8.678   3.360  0.00  0.00     0.126 C 
ENDBRANCH  31  32
ENDBRANCH  30  31
ENDBRANCH   8  30
TORSDOF 10
ENDMDL
MODEL 8
REMARK VINA RESULT:      -6.6     15.200     18.731
REMARK  10 active torsions:
REMARK  status: ('A' for Active; 'I' for Inactive)
REMARK    1  A    between atoms: O_4  and  C_21 
REMARK    2  A    between atoms: O_4  and  C_26 
REMARK    3  A    between atoms: O_5  and  C_22 
REMARK    4  A    between atoms: O_8  and  N_12 
REMARK    5  A    between atoms: CA_16  and  N_11 
REMARK       I    between atoms: N_11  and  C_23 
REMARK    6  A    between atoms: N_14  and  C_29 
REMARK    7  A    between atoms: CA_18  and  C_22 
REMARK    8  A    between atoms: C_19  and  C_21 
REMARK    9  A    between atoms: C_23  and  C_24 
REMARK   10  A    between atoms: C_24  and  C_25 
ROOT
ATOM      1  S   UNL d   1      37.915 -14.564  14.906  0.00  0.00    -0.136 SA
ATOM      2  O   UNL d   1      39.851 -10.901  14.905  0.00  0.00    -0.271 OA
ATOM      3  N   UNL d   1      39.101 -12.621  13.528  0.00  0.00    -0.293 N 
ATOM      4  C   UNL d   1      39.361 -13.993  13.959  0.00  0.00     0.187 C 
ATOM      5  CA  UNL d   1      40.572 -13.391  14.761  0.00  0.00     0.211 C 
ATOM      6  C   UNL d   1      39.822 -12.043  14.531  0.00  0.00     0.251 C 
ATOM      7  CA  UNL d   1      37.944 -12.211  12.900  0.00  0.00     0.117 C 
ATOM      8  C   UNL d   1      36.842 -13.017  12.850  0.00  0.00    -0.013 C 
ATOM      9  C   UNL d   1      36.776 -14.385  13.494  0.00  0.00     0.115 C 
ENDROOT
BRANCH   5  10
ATOM     10  N   UNL d   1      40.886 -13.989  16.107  0.00  0.00    -0.339 N 
ATOM     11  C   UNL d   1      42.217 -14.338  16.326  0.00  0.00     0.275 C 
ATOM     12  O   UNL d   1      42.554 -14.845  17.397  0.00  0.00    -0.266 OA
ATOM     13  H   UNL d   1      40.248 -13.965  16.896  0.00  0.00     0.163 HD
BRANCH  11  14
ATOM     14  C   UNL d   1      43.309 -14.091  15.279  0.00  0.00     0.180 C 
ATOM     15  N   UNL d   1      43.867 -12.975  14.919  0.00  0.00    -0.126 NA
BRANCH  15  16
ATOM     16  O   UNL d   1      43.449 -11.812  15.566  0.00  0.00    -0.261 OA
ATOM     17  C   UNL d   1      44.371 -11.601  16.651  0.00  0.00     0.240 C 
ENDBRANCH  15  16
BRANCH  14  18
ATOM     18  C   UNL d   1      43.716 -15.247  14.465  0.00  0.00     0.102 A 
ATOM     19  N   UNL d   1      42.798 -16.190  14.021  0.00  0.00    -0.222 NA
ATOM     20  C   UNL d   1      43.370 -17.031  13.197  0.00  0.00     0.164 A 
ATOM     21  S   UNL d   1      45.056 -16.817  12.972  0.00  0.00    -0.062 SA
ATOM     22  C   UNL d   1      45.011 -15.466  14.022  0.00  0.00     0.087 A 
BRANCH  20  23
ATOM     23  N   UNL d   1      42.697 -18.001  12.564  0.00  0.00    -0.378 N 
ATOM     24  H   UNL d   1      43.059 -18.945  12.580  0.00  0.00     0.158 HD
ATOM     25  H   UNL d   1      41.687 -17.920  12.564  0.00  0.00     0.158 HD
ENDBRANCH  20  23
ENDBRANCH  14  18
ENDBRANCH  11  14
ENDBRANCH   5  10
BRANCH   7  26
ATOM     26  C   UNL d   1      37.974 -10.893  12.144  0.00  0.00     0.194 C 
ATOM     27  OXT UNL d   1      37.682  -9.819  12.655  0.00  0.00    -0.645 OA
BRANCH  26  28
ATOM     28  O   UNL d   1      38.195 -10.997  10.824  0.00  0.00    -0.772 OA
ATOM     29  H   UNL d   1      39.138 -11.045  10.556  0.00  0.00     0.167 HD
ENDBRANCH  26  28
ENDBRANCH   7  26
BRANCH   8  30
ATOM     30  C   UNL d   1      35.525 -12.609  12.206  0.00  0.00     0.216 C 
BRANCH  30  31
ATOM     31  O   UNL d   1      35.258 -13.429  11.057  0.00  0.00    -0.317 OA
BRANCH  31  32
ATOM     32  C   UNL d   1      35.486 -12.860   9.845  0.00  0.00     0.255 C 
ATOM     33  O   UNL d   1      35.499 -11.661   9.613  0.00  0.00    -0.266 OA
ATOM     34  C   UNL d   1      35.737 -13.923   8.819  0.00  0.00     0.126 C 
ENDBRANCH  31  32
ENDBRANCH  30  31
ENDBRANCH   8  30
TORSDOF 10
ENDMDL
MODEL 9
REMARK VINA RESULT:      -6.4      3.543      5.464
REMARK  10 active torsions:
REMARK  status: ('A' for Active; 'I' for Inactive)
REMARK    1  A    between atoms: O_4  and  C_21 
REMARK    2  A    between atoms: O_4  and  C_26 
REMARK    3  A    between atoms: O_5  and  C_22 
REMARK    4  A    between atoms: O_8  and  N_12 
REMARK    5  A    between atoms: CA_16  and  N_11 
REMARK       I    between atoms: N_11  and  C_23 
REMARK    6  A    between atoms: N_14  and  C_29 
REMARK    7  A    between atoms: CA_18  and  C_22 
REMARK    8  A    between atoms: C_19  and  C_21 
REMARK    9  A    between atoms: C_23  and  C_24 
REMARK   10  A    between atoms: C_24  and  C_25 
ROOT
ATOM      1  S   UNL d   1      40.186  -7.362  -5.900  0.00  0.00    -0.136 SA
ATOM      2  O   UNL d   1      36.735  -5.632  -7.406  0.00  0.00    -0.271 OA
ATOM      3  N   UNL d   1      37.547  -7.467  -6.226  0.00  0.00    -0.293 N 
ATOM      4  C   UNL d   1      38.754  -8.116  -6.733  0.00  0.00     0.187 C 
ATOM      5  CA  UNL d   1      38.335  -7.542  -8.135  0.00  0.00     0.211 C 
ATOM      6  C   UNL d   1      37.418  -6.614  -7.282  0.00  0.00     0.251 C 
ATOM      7  CA  UNL d   1      37.265  -7.290  -4.887  0.00  0.00     0.117 C 
ATOM      8  C   UNL d   1      38.218  -7.497  -3.930  0.00  0.00    -0.013 C 
ATOM      9  C   UNL d   1      39.645  -7.893  -4.241  0.00  0.00     0.115 C 
ENDROOT
BRANCH   5  10
ATOM     10  N   UNL d   1      39.432  -7.069  -9.054  0.00  0.00    -0.339 N 
ATOM     11  C   UNL d   1      39.446  -7.629 -10.330  0.00  0.00     0.275 C 
ATOM     12  O   UNL d   1      40.319  -7.304 -11.136  0.00  0.00    -0.266 OA
ATOM     13  H   UNL d   1      40.009  -6.256  -8.867  0.00  0.00     0.163 HD
BRANCH  11  14
ATOM     14  C   UNL d   1      38.387  -8.636 -10.791  0.00  0.00     0.180 C 
ATOM     15  N   UNL d   1      38.454  -9.932 -10.855  0.00  0.00    -0.126 NA
BRANCH  15  16
ATOM     16  O   UNL d   1      39.644 -10.532 -10.439  0.00  0.00    -0.261 OA
ATOM     17  C   UNL d   1      39.344 -11.199  -9.199  0.00  0.00     0.240 C 
ENDBRANCH  15  16
BRANCH  14  18
ATOM     18  C   UNL d   1      37.151  -8.079 -11.362  0.00  0.00     0.102 A 
ATOM     19  N   UNL d   1      36.008  -8.850 -11.529  0.00  0.00    -0.222 NA
ATOM     20  C   UNL d   1      35.004  -8.102 -11.910  0.00  0.00     0.164 A 
ATOM     21  S   UNL d   1      35.374  -6.452 -12.190  0.00  0.00    -0.062 SA
ATOM     22  C   UNL d   1      36.993  -6.748 -11.721  0.00  0.00     0.087 A 
BRANCH  20  23
ATOM     23  N   UNL d   1      33.763  -8.578 -12.076  0.00  0.00    -0.378 N 
ATOM     24  H   UNL d   1      33.603  -9.319 -12.744  0.00  0.00     0.158 HD
ATOM     25  H   UNL d   1      33.177  -8.601 -11.250  0.00  0.00     0.158 HD
ENDBRANCH  20  23
ENDBRANCH  14  18
ENDBRANCH  11  14
ENDBRANCH   5  10
BRANCH   7  26
ATOM     26  C   UNL d   1      35.826  -6.995  -4.496  0.00  0.00     0.194 C 
ATOM     27  OXT UNL d   1      34.984  -7.868  -4.328  0.00  0.00    -0.645 OA
BRANCH  26  28
ATOM     28  O   UNL d   1      35.491  -5.695  -4.494  0.00  0.00    -0.772 OA
ATOM     29  H   UNL d   1      35.201  -5.336  -3.628  0.00  0.00     0.167 HD
ENDBRANCH  26  28
ENDBRANCH   7  26
BRANCH   8  30
ATOM     30  C   UNL d   1      37.980  -7.284  -2.442  0.00  0.00     0.216 C 
BRANCH  30  31
ATOM     31  O   UNL d   1      38.691  -6.122  -1.986  0.00  0.00    -0.317 OA
BRANCH  31  32
ATOM     32  C   UNL d   1      39.138  -6.154  -0.704  0.00  0.00     0.255 C 
ATOM     33  O   UNL d   1      38.510  -5.784   0.277  0.00  0.00    -0.266 OA
ATOM     34  C   UNL d   1      40.521  -6.728  -0.657  0.00  0.00     0.126 C 
ENDBRANCH  31  32
ENDBRANCH  30  31
ENDBRANCH   8  30
TORSDOF 10
ENDMDL
