MODEL 1
REMARK VINA RESULT:      -6.1      0.000      0.000
REMARK  3 active torsions:
REMARK  status: ('A' for Active; 'I' for Inactive)
REMARK    1  A    between atoms: C_1  and  O_3 
REMARK    2  A    between atoms: C_1  and  C_4 
REMARK    3  A    between atoms: C_5  and  O_10 
ROOT
ATOM      1  C   UNL d   1       6.966 -10.623 -26.204  0.00  0.00     0.070 A 
ATOM      2  C   UNL d   1       6.198 -11.616 -25.582  0.00  0.00     0.082 A 
ATOM      3  C   UNL d   1       6.523 -12.064 -24.302  0.00  0.00     0.037 A 
ATOM      4  C   UNL d   1       7.622 -11.528 -23.632  0.00  0.00     0.003 A 
ATOM      5  C   UNL d   1       8.399 -10.544 -24.241  0.00  0.00     0.001 A 
ATOM      6  C   UNL d   1       8.072 -10.092 -25.522  0.00  0.00     0.021 A 
ENDROOT
BRANCH   1   7
ATOM      7  C   UNL d   1       6.677 -10.083 -27.555  0.00  0.00     0.178 C 
ATOM      8  O   UNL d   1       5.628 -10.189 -28.163  0.00  0.00    -0.646 OA
BRANCH   7   9
ATOM      9  O   UNL d   1       7.727  -9.433 -28.099  0.00  0.00    -0.773 OA
ATOM     10  H   UNL d   1       8.252 -10.161 -28.502  0.00  0.00     0.167 HD
ENDBRANCH   7   9
ENDBRANCH   1   7
BRANCH   2  11
ATOM     11  O   UNL d   1       5.107 -12.208 -26.159  0.00  0.00    -0.360 OA
ATOM     12  H   UNL d   1       4.961 -11.773 -27.025  0.00  0.00     0.217 HD
ENDBRANCH   2  11
TORSDOF 3
ENDMDL
MODEL 2
REMARK VINA RESULT:      -6.0      1.706      3.180
REMARK  3 active torsions:
REMARK  status: ('A' for Active; 'I' for Inactive)
REMARK    1  A    between atoms: C_1  and  O_3 
REMARK    2  A    between atoms: C_1  and  C_4 
REMARK    3  A    between atoms: C_5  and  O_10 
ROOT
ATOM      1  C   UNL d   1       7.024 -11.032 -25.221  0.00  0.00     0.070 A 
ATOM      2  C   UNL d   1       7.998 -10.955 -24.217  0.00  0.00     0.082 A 
ATOM      3  C   UNL d   1       8.973  -9.959 -24.253  0.00  0.00     0.037 A 
ATOM      4  C   UNL d   1       8.990  -9.034 -25.295  0.00  0.00     0.003 A 
ATOM      5  C   UNL d   1       8.032  -9.103 -26.304  0.00  0.00     0.001 A 
ATOM      6  C   UNL d   1       7.051 -10.098 -26.268  0.00  0.00     0.021 A 
ENDROOT
BRANCH   1   7
ATOM      7  C   UNL d   1       5.945 -12.050 -25.247  0.00  0.00     0.178 C 
ATOM      8  O   UNL d   1       5.687 -12.847 -24.363  0.00  0.00    -0.646 OA
BRANCH   7   9
ATOM      9  O   UNL d   1       5.232 -12.035 -26.392  0.00  0.00    -0.773 OA
ATOM     10  H   UNL d   1       4.805 -12.922 -26.398  0.00  0.00     0.167 HD
ENDBRANCH   7   9
ENDBRANCH   1   7
BRANCH   2  11
ATOM     11  O   UNL d   1       8.070 -11.820 -23.158  0.00  0.00    -0.360 OA
ATOM     12  H   UNL d   1       7.940 -11.295 -22.341  0.00  0.00     0.217 HD
ENDBRANCH   2  11
TORSDOF 3
ENDMDL
MODEL 3
REMARK VINA RESULT:      -6.0      2.747      4.157
REMARK  3 active torsions:
REMARK  status: ('A' for Active; 'I' for Inactive)
REMARK    1  A    between atoms: C_1  and  O_3 
REMARK    2  A    between atoms: C_1  and  C_4 
REMARK    3  A    between atoms: C_5  and  O_10 
ROOT
ATOM      1  C   UNL d   1       7.413  -9.691 -24.617  0.00  0.00     0.070 A 
ATOM      2  C   UNL d   1       8.010  -9.950 -25.858  0.00  0.00     0.082 A 
ATOM      3  C   UNL d   1       7.484  -9.396 -27.025  0.00  0.00     0.037 A 
ATOM      4  C   UNL d   1       6.353  -8.583 -26.965  0.00  0.00     0.003 A 
ATOM      5  C   UNL d   1       5.745  -8.324 -25.738  0.00  0.00     0.001 A 
ATOM      6  C   UNL d   1       6.273  -8.875 -24.568  0.00  0.00     0.021 A 
ENDROOT
BRANCH   1   7
ATOM      7  C   UNL d   1       7.921 -10.229 -23.331  0.00  0.00     0.178 C 
ATOM      8  O   UNL d   1       8.292  -9.575 -22.374  0.00  0.00    -0.646 OA
BRANCH   7   9
ATOM      9  O   UNL d   1       7.950 -11.578 -23.298  0.00  0.00    -0.773 OA
ATOM     10  H   UNL d   1       7.313 -11.795 -22.579  0.00  0.00     0.167 HD
ENDBRANCH   7   9
ENDBRANCH   1   7
BRANCH   2  11
ATOM     11  O   UNL d   1       9.117 -10.738 -26.021  0.00  0.00    -0.360 OA
ATOM     12  H   UNL d   1       9.832 -10.171 -26.379  0.00  0.00     0.217 HD
ENDBRANCH   2  11
TORSDOF 3
ENDMDL
MODEL 4
REMARK VINA RESULT:      -6.0      2.843      3.461
REMARK  3 active torsions:
REMARK  status: ('A' for Active; 'I' for Inactive)
REMARK    1  A    between atoms: C_1  and  O_3 
REMARK    2  A    between atoms: C_1  and  C_4 
REMARK    3  A    between atoms: C_5  and  O_10 
ROOT
ATOM      1  C   UNL d   1       8.418 -10.271 -24.774  0.00  0.00     0.070 A 
ATOM      2  C   UNL d   1       7.630 -10.769 -23.727  0.00  0.00     0.082 A 
ATOM      3  C   UNL d   1       6.728 -11.808 -23.953  0.00  0.00     0.037 A 
ATOM      4  C   UNL d   1       6.600 -12.357 -25.228  0.00  0.00     0.003 A 
ATOM      5  C   UNL d   1       7.372 -11.868 -26.279  0.00  0.00     0.001 A 
ATOM      6  C   UNL d   1       8.279 -10.829 -26.054  0.00  0.00     0.021 A 
ENDROOT
BRANCH   1   7
ATOM      7  C   UNL d   1       9.410  -9.180 -24.612  0.00  0.00     0.178 C 
ATOM      8  O   UNL d   1      10.376  -8.974 -25.323  0.00  0.00    -0.646 OA
BRANCH   7   9
ATOM      9  O   UNL d   1       9.154  -8.388 -23.550  0.00  0.00    -0.773 OA
ATOM     10  H   UNL d   1       8.389  -8.836 -23.121  0.00  0.00     0.167 HD
ENDBRANCH   7   9
ENDBRANCH   1   7
BRANCH   2  11
ATOM     11  O   UNL d   1       7.678 -10.292 -22.445  0.00  0.00    -0.360 OA
ATOM     12  H   UNL d   1       7.191 -10.924 -21.878  0.00  0.00     0.217 HD
ENDBRANCH   2  11
TORSDOF 3
ENDMDL
MODEL 5
REMARK VINA RESULT:      -6.0      1.401      2.360
REMARK  3 active torsions:
REMARK  status: ('A' for Active; 'I' for Inactive)
REMARK    1  A    between atoms: C_1  and  O_3 
REMARK    2  A    between atoms: C_1  and  C_4 
REMARK    3  A    between atoms: C_5  and  O_10 
ROOT
ATOM      1  C   UNL d   1       7.441 -11.120 -26.349  0.00  0.00     0.070 A 
ATOM      2  C   UNL d   1       8.427 -10.701 -25.447  0.00  0.00     0.082 A 
ATOM      3  C   UNL d   1       8.320 -11.005 -24.090  0.00  0.00     0.037 A 
ATOM      4  C   UNL d   1       7.224 -11.725 -23.619  0.00  0.00     0.003 A 
ATOM      5  C   UNL d   1       6.232 -12.143 -24.504  0.00  0.00     0.001 A 
ATOM      6  C   UNL d   1       6.339 -11.842 -25.865  0.00  0.00     0.021 A 
ENDROOT
BRANCH   1   7
ATOM      7  C   UNL d   1       7.489 -10.851 -27.807  0.00  0.00     0.178 C 
ATOM      8  O   UNL d   1       7.310 -11.664 -28.696  0.00  0.00    -0.646 OA
BRANCH   7   9
ATOM      9  O   UNL d   1       7.772  -9.564 -28.097  0.00  0.00    -0.773 OA
ATOM     10  H   UNL d   1       6.981  -9.274 -28.607  0.00  0.00     0.167 HD
ENDBRANCH   7   9
ENDBRANCH   1   7
BRANCH   2  11
ATOM     11  O   UNL d   1       9.536  -9.984 -25.810  0.00  0.00    -0.360 OA
ATOM     12  H   UNL d   1       9.612 -10.035 -26.785  0.00  0.00     0.217 HD
ENDBRANCH   2  11
TORSDOF 3
ENDMDL
MODEL 6
REMARK VINA RESULT:      -5.9      1.901      3.480
REMARK  3 active torsions:
REMARK  status: ('A' for Active; 'I' for Inactive)
REMARK    1  A    between atoms: C_1  and  O_3 
REMARK    2  A    between atoms: C_1  and  C_4 
REMARK    3  A    between atoms: C_5  and  O_10 
ROOT
ATOM      1  C   UNL d   1       6.204 -10.768 -25.180  0.00  0.00     0.070 A 
ATOM      2  C   UNL d   1       5.830 -10.881 -26.526  0.00  0.00     0.082 A 
ATOM      3  C   UNL d   1       5.692  -9.743 -27.320  0.00  0.00     0.037 A 
ATOM      4  C   UNL d   1       5.919  -8.480 -26.776  0.00  0.00     0.003 A 
ATOM      5  C   UNL d   1       6.284  -8.352 -25.437  0.00  0.00     0.001 A 
ATOM      6  C   UNL d   1       6.427  -9.492 -24.641  0.00  0.00     0.021 A 
ENDROOT
BRANCH   1   7
ATOM      7  C   UNL d   1       6.387 -11.930 -24.276  0.00  0.00     0.178 C 
ATOM      8  O   UNL d   1       5.762 -12.974 -24.309  0.00  0.00    -0.646 OA
BRANCH   7   9
ATOM      9  O   UNL d   1       7.351 -11.732 -23.352  0.00  0.00    -0.773 OA
ATOM     10  H   UNL d   1       7.879 -12.561 -23.404  0.00  0.00     0.167 HD
ENDBRANCH   7   9
ENDBRANCH   1   7
BRANCH   2  11
ATOM     11  O   UNL d   1       5.579 -12.074 -27.149  0.00  0.00    -0.360 OA
ATOM     12  H   UNL d   1       4.622 -12.261 -27.051  0.00  0.00     0.217 HD
ENDBRANCH   2  11
TORSDOF 3
ENDMDL
MODEL 7
REMARK VINA RESULT:      -5.9      1.034      2.721
REMARK  3 active torsions:
REMARK  status: ('A' for Active; 'I' for Inactive)
REMARK    1  A    between atoms: C_1  and  O_3 
REMARK    2  A    between atoms: C_1  and  C_4 
REMARK    3  A    between atoms: C_5  and  O_10 
ROOT
ATOM      1  C   UNL d   1       6.822 -10.590 -26.136  0.00  0.00     0.070 A 
ATOM      2  C   UNL d   1       7.741  -9.674 -26.666  0.00  0.00     0.082 A 
ATOM      3  C   UNL d   1       8.655  -9.027 -25.835  0.00  0.00     0.037 A 
ATOM      4  C   UNL d   1       8.657  -9.283 -24.465  0.00  0.00     0.003 A 
ATOM      5  C   UNL d   1       7.744 -10.186 -23.923  0.00  0.00     0.001 A 
ATOM      6  C   UNL d   1       6.830 -10.838 -24.755  0.00  0.00     0.021 A 
ENDROOT
BRANCH   1   7
ATOM      7  C   UNL d   1       5.830 -11.329 -26.954  0.00  0.00     0.178 C 
ATOM      8  O   UNL d   1       5.586 -11.142 -28.132  0.00  0.00    -0.646 OA
BRANCH   7   9
ATOM      9  O   UNL d   1       5.171 -12.276 -26.255  0.00  0.00    -0.773 OA
ATOM     10  H   UNL d   1       4.429 -11.773 -25.847  0.00  0.00     0.167 HD
ENDBRANCH   7   9
ENDBRANCH   1   7
BRANCH   2  11
ATOM     11  O   UNL d   1       7.813  -9.351 -27.994  0.00  0.00    -0.360 OA
ATOM     12  H   UNL d   1       8.122  -8.423 -28.054  0.00  0.00     0.217 HD
ENDBRANCH   2  11
TORSDOF 3
ENDMDL
MODEL 8
REMARK VINA RESULT:      -5.8      2.221      3.193
REMARK  3 active torsions:
REMARK  status: ('A' for Active; 'I' for Inactive)
REMARK    1  A    between atoms: C_1  and  O_3 
REMARK    2  A    between atoms: C_1  and  C_4 
REMARK    3  A    between atoms: C_5  and  O_10 
ROOT
ATOM      1  C   UNL d   1       6.566  -9.981 -26.377  0.00  0.00     0.070 A 
ATOM      2  C   UNL d   1       7.291 -10.350 -27.518  0.00  0.00     0.082 A 
ATOM      3  C   UNL d   1       7.342 -11.683 -27.924  0.00  0.00     0.037 A 
ATOM      4  C   UNL d   1       6.675 -12.663 -27.192  0.00  0.00     0.003 A 
ATOM      5  C   UNL d   1       5.955 -12.312 -26.051  0.00  0.00     0.001 A 
ATOM      6  C   UNL d   1       5.900 -10.976 -25.645  0.00  0.00     0.021 A 
ENDROOT
BRANCH   1   7
ATOM      7  C   UNL d   1       6.450  -8.585 -25.890  0.00  0.00     0.178 C 
ATOM      8  O   UNL d   1       6.422  -8.229 -24.726  0.00  0.00    -0.646 OA
BRANCH   7   9
ATOM      9  O   UNL d   1       6.366  -7.683 -26.890  0.00  0.00    -0.773 OA
ATOM     10  H   UNL d   1       5.925  -6.916 -26.457  0.00  0.00     0.167 HD
ENDBRANCH   7   9
ENDBRANCH   1   7
BRANCH   2  11
ATOM     11  O   UNL d   1       7.984  -9.464 -28.299  0.00  0.00    -0.360 OA
ATOM     12  H   UNL d   1       8.895  -9.407 -27.941  0.00  0.00     0.217 HD
ENDBRANCH   2  11
TORSDOF 3
ENDMDL
MODEL 9
REMARK VINA RESULT:      -5.6      1.738      2.460
REMARK  3 active torsions:
REMARK  status: ('A' for Active; 'I' for Inactive)
REMARK    1  A    between atoms: C_1  and  O_3 
REMARK    2  A    between atoms: C_1  and  C_4 
REMARK    3  A    between atoms: C_5  and  O_10 
ROOT
ATOM      1  C   UNL d   1       7.154 -10.251 -26.447  0.00  0.00     0.070 A 
ATOM      2  C   UNL d   1       8.388 -10.616 -25.891  0.00  0.00     0.082 A 
ATOM      3  C   UNL d   1       8.817 -10.051 -24.690  0.00  0.00     0.037 A 
ATOM      4  C   UNL d   1       8.021  -9.113 -24.035  0.00  0.00     0.003 A 
ATOM      5  C   UNL d   1       6.796  -8.736 -24.581  0.00  0.00     0.001 A 
ATOM      6  C   UNL d   1       6.362  -9.303 -25.782  0.00  0.00     0.021 A 
ENDROOT
BRANCH   1   7
ATOM      7  C   UNL d   1       6.621 -10.817 -27.710  0.00  0.00     0.178 C 
ATOM      8  O   UNL d   1       7.201 -11.584 -28.457  0.00  0.00    -0.646 OA
BRANCH   7   9
ATOM      9  O   UNL d   1       5.374 -10.388 -27.995  0.00  0.00    -0.773 OA
ATOM     10  H   UNL d   1       5.294 -10.569 -28.959  0.00  0.00     0.167 HD
ENDBRANCH   7   9
ENDBRANCH   1   7
BRANCH   2  11
ATOM     11  O   UNL d   1       9.242 -11.522 -26.460  0.00  0.00    -0.360 OA
ATOM     12  H   UNL d   1       9.335 -12.271 -25.835  0.00  0.00     0.217 HD
ENDBRANCH   2  11
TORSDOF 3
ENDMDL
