REMARK  3 active torsions:
REMARK  status: ('A' for Active; 'I' for Inactive)
REMARK    1  A    between atoms: C_1  and  O_3 
REMARK    2  A    between atoms: C_1  and  C_4 
REMARK    3  A    between atoms: C_5  and  O_10 
ROOT
ATOM      1  C   UNL d   1       2.411   0.029  -0.012  0.00  0.00     0.070 A 
ATOM      2  C   UNL d   1       3.140  -1.168   0.004  0.00  0.00     0.082 A 
ATOM      3  C   UNL d   1       4.534  -1.147   0.030  0.00  0.00     0.037 A 
ATOM      4  C   UNL d   1       5.215   0.069   0.034  0.00  0.00     0.003 A 
ATOM      5  C   UNL d   1       4.503   1.267   0.011  0.00  0.00     0.001 A 
ATOM      6  C   UNL d   1       3.106   1.248  -0.011  0.00  0.00     0.021 A 
ENDROOT
BRANCH   1   7
ATOM      7  C   UNL d   1       0.929   0.091  -0.024  0.00  0.00     0.178 C 
ATOM      8  O   UNL d   1       0.251   1.102  -0.037  0.00  0.00    -0.646 OA
BRANCH   7   9
ATOM      9  O   UNL d   1       0.350  -1.128  -0.011  0.00  0.00    -0.773 OA
ATOM     10  H   UNL d   1      -0.611  -0.915  -0.006  0.00  0.00     0.167 HD
ENDBRANCH   7   9
ENDBRANCH   1   7
BRANCH   2  11
ATOM     11  O   UNL d   1       2.564  -2.410  -0.005  0.00  0.00    -0.360 OA
ATOM     12  H   UNL d   1       1.593  -2.283  -0.032  0.00  0.00     0.217 HD
ENDBRANCH   2  11
TORSDOF 3
