@<TRIPOS>MOLECULE
SAL
 16 16 0 0 0
SMALL
GASTEIGER

@<TRIPOS>ATOM
      1 C           0.9292    0.0913   -0.0236 C.2     1  UNL1        0.3404
      2 O           0.2509    1.1021   -0.0371 O.2     1  UNL1       -0.2450
      3 O           0.3498   -1.1278   -0.0111 O.3     1  UNL1       -0.4770
      4 C           2.4110    0.0288   -0.0118 C.ar    1  UNL1        0.1001
      5 C           3.1401   -1.1684    0.0044 C.ar    1  UNL1        0.1308
      6 C           4.5342   -1.1474    0.0297 C.ar    1  UNL1       -0.0194
      7 C           5.2155    0.0692    0.0338 C.ar    1  UNL1       -0.0583
      8 C           4.5029    1.2673    0.0107 C.ar    1  UNL1       -0.0608
      9 C           3.1057    1.2483   -0.0105 C.ar    1  UNL1       -0.0442
     10 O           2.5644   -2.4103   -0.0051 O.3     1  UNL1       -0.5059
     11 H          -0.6107   -0.9148   -0.0062 H       1  UNL1        0.2954
     12 H           5.0884   -2.0825    0.0473 H       1  UNL1        0.0654
     13 H           6.3025    0.0809    0.0542 H       1  UNL1        0.0619
     14 H           5.0345    2.2160    0.0116 H       1  UNL1        0.0618
     15 H           2.5617    2.1912   -0.0252 H       1  UNL1        0.0627
     16 H           1.5925   -2.2826   -0.0317 H       1  UNL1        0.2922
@<TRIPOS>BOND
     1     1     2    2
     2     1     3    1
     3     1     4    1
     4     3    11    1
     5     4     5   ar
     6     4     9   ar
     7     5     6   ar
     8     5    10    1
     9     6     7   ar
    10     6    12    1
    11     7     8   ar
    12     7    13    1
    13     8     9   ar
    14     8    14    1
    15     9    15    1
    16    10    16    1
