MODEL 1
REMARK VINA RESULT:      -6.1      0.000      0.000
REMARK  3 active torsions:
REMARK  status: ('A' for Active; 'I' for Inactive)
REMARK    1  A    between atoms: C_1  and  O_3 
REMARK    2  A    between atoms: C_1  and  C_4 
REMARK    3  A    between atoms: C_5  and  O_10 
ROOT
ATOM      1  C   UNL d   1       6.965 -10.620 -26.204  0.00  0.00     0.070 A 
ATOM      2  C   UNL d   1       6.198 -11.615 -25.581  0.00  0.00     0.082 A 
ATOM      3  C   UNL d   1       6.525 -12.062 -24.302  0.00  0.00     0.037 A 
ATOM      4  C   UNL d   1       7.624 -11.525 -23.632  0.00  0.00     0.003 A 
ATOM      5  C   UNL d   1       8.399 -10.539 -24.243  0.00  0.00     0.001 A 
ATOM      6  C   UNL d   1       8.071 -10.088 -25.523  0.00  0.00     0.021 A 
ENDROOT
BRANCH   1   7
ATOM      7  C   UNL d   1       6.677 -10.081 -27.555  0.00  0.00     0.178 C 
ATOM      8  O   UNL d   1       5.627 -10.185 -28.164  0.00  0.00    -0.646 OA
BRANCH   7   9
ATOM      9  O   UNL d   1       7.727  -9.432 -28.099  0.00  0.00    -0.773 OA
ATOM     10  H   UNL d   1       7.301  -8.830 -28.750  0.00  0.00     0.167 HD
ENDBRANCH   7   9
ENDBRANCH   1   7
BRANCH   2  11
ATOM     11  O   UNL d   1       5.108 -12.207 -26.158  0.00  0.00    -0.360 OA
ATOM     12  H   UNL d   1       5.313 -13.160 -26.263  0.00  0.00     0.217 HD
ENDBRANCH   2  11
TORSDOF 3
ENDMDL
MODEL 2
REMARK VINA RESULT:      -6.0      1.273      2.296
REMARK  3 active torsions:
REMARK  status: ('A' for Active; 'I' for Inactive)
REMARK    1  A    between atoms: C_1  and  O_3 
REMARK    2  A    between atoms: C_1  and  C_4 
REMARK    3  A    between atoms: C_5  and  O_10 
ROOT
ATOM      1  C   UNL d   1       7.005 -11.496 -26.410  0.00  0.00     0.070 A 
ATOM      2  C   UNL d   1       7.991 -10.788 -25.707  0.00  0.00     0.082 A 
ATOM      3  C   UNL d   1       8.097 -10.910 -24.322  0.00  0.00     0.037 A 
ATOM      4  C   UNL d   1       7.217 -11.736 -23.622  0.00  0.00     0.003 A 
ATOM      5  C   UNL d   1       6.228 -12.440 -24.308  0.00  0.00     0.001 A 
ATOM      6  C   UNL d   1       6.123 -12.322 -25.696  0.00  0.00     0.021 A 
ENDROOT
BRANCH   1   7
ATOM      7  C   UNL d   1       6.835 -11.432 -27.881  0.00  0.00     0.178 C 
ATOM      8  O   UNL d   1       5.796 -11.600 -28.494  0.00  0.00    -0.646 OA
BRANCH   7   9
ATOM      9  O   UNL d   1       7.985 -11.166 -28.534  0.00  0.00    -0.773 OA
ATOM     10  H   UNL d   1       7.706 -10.513 -29.214  0.00  0.00     0.167 HD
ENDBRANCH   7   9
ENDBRANCH   1   7
BRANCH   2  11
ATOM     11  O   UNL d   1       8.894  -9.950 -26.301  0.00  0.00    -0.360 OA
ATOM     12  H   UNL d   1       9.277 -10.427 -27.067  0.00  0.00     0.217 HD
ENDBRANCH   2  11
TORSDOF 3
ENDMDL
MODEL 3
REMARK VINA RESULT:      -6.0      1.703      3.172
REMARK  3 active torsions:
REMARK  status: ('A' for Active; 'I' for Inactive)
REMARK    1  A    between atoms: C_1  and  O_3 
REMARK    2  A    between atoms: C_1  and  C_4 
REMARK    3  A    between atoms: C_5  and  O_10 
ROOT
ATOM      1  C   UNL d   1       7.025 -11.046 -25.220  0.00  0.00     0.070 A 
ATOM      2  C   UNL d   1       7.984 -10.963 -24.200  0.00  0.00     0.082 A 
ATOM      3  C   UNL d   1       8.962  -9.970 -24.228  0.00  0.00     0.037 A 
ATOM      4  C   UNL d   1       8.997  -9.052 -25.278  0.00  0.00     0.003 A 
ATOM      5  C   UNL d   1       8.054  -9.127 -26.302  0.00  0.00     0.001 A 
ATOM      6  C   UNL d   1       7.072 -10.120 -26.274  0.00  0.00     0.021 A 
ENDROOT
BRANCH   1   7
ATOM      7  C   UNL d   1       5.946 -12.062 -25.257  0.00  0.00     0.178 C 
ATOM      8  O   UNL d   1       5.690 -12.874 -24.386  0.00  0.00    -0.646 OA
BRANCH   7   9
ATOM      9  O   UNL d   1       5.226 -12.026 -26.398  0.00  0.00    -0.773 OA
ATOM     10  H   UNL d   1       5.829 -11.567 -27.025  0.00  0.00     0.167 HD
ENDBRANCH   7   9
ENDBRANCH   1   7
BRANCH   2  11
ATOM     11  O   UNL d   1       8.036 -11.819 -23.134  0.00  0.00    -0.360 OA
ATOM     12  H   UNL d   1       8.168 -11.276 -22.328  0.00  0.00     0.217 HD
ENDBRANCH   2  11
TORSDOF 3
ENDMDL
MODEL 4
REMARK VINA RESULT:      -6.0      2.818      3.445
REMARK  3 active torsions:
REMARK  status: ('A' for Active; 'I' for Inactive)
REMARK    1  A    between atoms: C_1  and  O_3 
REMARK    2  A    between atoms: C_1  and  C_4 
REMARK    3  A    between atoms: C_5  and  O_10 
ROOT
ATOM      1  C   UNL d   1       8.436 -10.237 -24.856  0.00  0.00     0.070 A 
ATOM      2  C   UNL d   1       7.657 -10.742 -23.804  0.00  0.00     0.082 A 
ATOM      3  C   UNL d   1       6.743 -11.770 -24.032  0.00  0.00     0.037 A 
ATOM      4  C   UNL d   1       6.591 -12.301 -25.313  0.00  0.00     0.003 A 
ATOM      5  C   UNL d   1       7.354 -11.803 -26.368  0.00  0.00     0.001 A 
ATOM      6  C   UNL d   1       8.273 -10.776 -26.141  0.00  0.00     0.021 A 
ENDROOT
BRANCH   1   7
ATOM      7  C   UNL d   1       9.438  -9.157 -24.695  0.00  0.00     0.178 C 
ATOM      8  O   UNL d   1      10.405  -8.958 -25.409  0.00  0.00    -0.646 OA
BRANCH   7   9
ATOM      9  O   UNL d   1       9.194  -8.364 -23.630  0.00  0.00    -0.773 OA
ATOM     10  H   UNL d   1      10.095  -8.089 -23.349  0.00  0.00     0.167 HD
ENDBRANCH   7   9
ENDBRANCH   1   7
BRANCH   2  11
ATOM     11  O   UNL d   1       7.728 -10.284 -22.517  0.00  0.00    -0.360 OA
ATOM     12  H   UNL d   1       6.811 -10.219 -22.178  0.00  0.00     0.217 HD
ENDBRANCH   2  11
TORSDOF 3
ENDMDL
MODEL 5
REMARK VINA RESULT:      -6.0      2.743      4.153
REMARK  3 active torsions:
REMARK  status: ('A' for Active; 'I' for Inactive)
REMARK    1  A    between atoms: C_1  and  O_3 
REMARK    2  A    between atoms: C_1  and  C_4 
REMARK    3  A    between atoms: C_5  and  O_10 
ROOT
ATOM      1  C   UNL d   1       7.419  -9.699 -24.620  0.00  0.00     0.070 A 
ATOM      2  C   UNL d   1       8.016  -9.959 -25.863  0.00  0.00     0.082 A 
ATOM      3  C   UNL d   1       7.488  -9.408 -27.029  0.00  0.00     0.037 A 
ATOM      4  C   UNL d   1       6.355  -8.595 -26.970  0.00  0.00     0.003 A 
ATOM      5  C   UNL d   1       5.749  -8.334 -25.742  0.00  0.00     0.001 A 
ATOM      6  C   UNL d   1       6.278  -8.883 -24.572  0.00  0.00     0.021 A 
ENDROOT
BRANCH   1   7
ATOM      7  C   UNL d   1       7.926 -10.234 -23.334  0.00  0.00     0.178 C 
ATOM      8  O   UNL d   1       8.291  -9.579 -22.374  0.00  0.00    -0.646 OA
BRANCH   7   9
ATOM      9  O   UNL d   1       7.963 -11.582 -23.301  0.00  0.00    -0.773 OA
ATOM     10  H   UNL d   1       8.918 -11.773 -23.158  0.00  0.00     0.167 HD
ENDBRANCH   7   9
ENDBRANCH   1   7
BRANCH   2  11
ATOM     11  O   UNL d   1       9.123 -10.746 -26.025  0.00  0.00    -0.360 OA
ATOM     12  H   UNL d   1       9.908 -10.195 -25.820  0.00  0.00     0.217 HD
ENDBRANCH   2  11
TORSDOF 3
ENDMDL
MODEL 6
REMARK VINA RESULT:      -5.9      1.900      3.480
REMARK  3 active torsions:
REMARK  status: ('A' for Active; 'I' for Inactive)
REMARK    1  A    between atoms: C_1  and  O_3 
REMARK    2  A    between atoms: C_1  and  C_4 
REMARK    3  A    between atoms: C_5  and  O_10 
ROOT
ATOM      1  C   UNL d   1       6.205 -10.769 -25.180  0.00  0.00     0.070 A 
ATOM      2  C   UNL d   1       5.831 -10.882 -26.527  0.00  0.00     0.082 A 
ATOM      3  C   UNL d   1       5.691  -9.743 -27.320  0.00  0.00     0.037 A 
ATOM      4  C   UNL d   1       5.918  -8.479 -26.775  0.00  0.00     0.003 A 
ATOM      5  C   UNL d   1       6.284  -8.353 -25.436  0.00  0.00     0.001 A 
ATOM      6  C   UNL d   1       6.427  -9.493 -24.641  0.00  0.00     0.021 A 
ENDROOT
BRANCH   1   7
ATOM      7  C   UNL d   1       6.388 -11.929 -24.275  0.00  0.00     0.178 C 
ATOM      8  O   UNL d   1       5.762 -12.974 -24.307  0.00  0.00    -0.646 OA
BRANCH   7   9
ATOM      9  O   UNL d   1       7.351 -11.731 -23.352  0.00  0.00    -0.773 OA
ATOM     10  H   UNL d   1       8.114 -11.425 -23.892  0.00  0.00     0.167 HD
ENDBRANCH   7   9
ENDBRANCH   1   7
BRANCH   2  11
ATOM     11  O   UNL d   1       5.580 -12.074 -27.150  0.00  0.00    -0.360 OA
ATOM     12  H   UNL d   1       5.501 -12.759 -26.452  0.00  0.00     0.217 HD
ENDBRANCH   2  11
TORSDOF 3
ENDMDL
MODEL 7
REMARK VINA RESULT:      -5.8      1.557      3.079
REMARK  3 active torsions:
REMARK  status: ('A' for Active; 'I' for Inactive)
REMARK    1  A    between atoms: C_1  and  O_3 
REMARK    2  A    between atoms: C_1  and  C_4 
REMARK    3  A    between atoms: C_5  and  O_10 
ROOT
ATOM      1  C   UNL d   1       7.270 -10.883 -24.727  0.00  0.00     0.070 A 
ATOM      2  C   UNL d   1       8.293 -10.558 -25.630  0.00  0.00     0.082 A 
ATOM      3  C   UNL d   1       9.302  -9.667 -25.266  0.00  0.00     0.037 A 
ATOM      4  C   UNL d   1       9.298  -9.086 -23.998  0.00  0.00     0.003 A 
ATOM      5  C   UNL d   1       8.283  -9.395 -23.093  0.00  0.00     0.001 A 
ATOM      6  C   UNL d   1       7.274 -10.290 -23.455  0.00  0.00     0.021 A 
ENDROOT
BRANCH   1   7
ATOM      7  C   UNL d   1       6.171 -11.830 -25.032  0.00  0.00     0.178 C 
ATOM      8  O   UNL d   1       5.724 -12.681 -24.283  0.00  0.00    -0.646 OA
BRANCH   7   9
ATOM      9  O   UNL d   1       5.673 -11.678 -26.277  0.00  0.00    -0.773 OA
ATOM     10  H   UNL d   1       4.737 -11.425 -26.110  0.00  0.00     0.167 HD
ENDBRANCH   7   9
ENDBRANCH   1   7
BRANCH   2  11
ATOM     11  O   UNL d   1       8.381 -11.070 -26.896  0.00  0.00    -0.360 OA
ATOM     12  H   UNL d   1       9.325 -11.272 -27.066  0.00  0.00     0.217 HD
ENDBRANCH   2  11
TORSDOF 3
ENDMDL
MODEL 8
REMARK VINA RESULT:      -5.8      1.099      1.641
REMARK  3 active torsions:
REMARK  status: ('A' for Active; 'I' for Inactive)
REMARK    1  A    between atoms: C_1  and  O_3 
REMARK    2  A    between atoms: C_1  and  C_4 
REMARK    3  A    between atoms: C_5  and  O_10 
ROOT
ATOM      1  C   UNL d   1       6.974 -10.355 -26.173  0.00  0.00     0.070 A 
ATOM      2  C   UNL d   1       6.137 -11.423 -26.528  0.00  0.00     0.082 A 
ATOM      3  C   UNL d   1       5.815 -12.409 -25.595  0.00  0.00     0.037 A 
ATOM      4  C   UNL d   1       6.328 -12.342 -24.300  0.00  0.00     0.003 A 
ATOM      5  C   UNL d   1       7.166 -11.288 -23.936  0.00  0.00     0.001 A 
ATOM      6  C   UNL d   1       7.487 -10.299 -24.868  0.00  0.00     0.021 A 
ENDROOT
BRANCH   1   7
ATOM      7  C   UNL d   1       7.353  -9.262 -27.099  0.00  0.00     0.178 C 
ATOM      8  O   UNL d   1       8.424  -8.683 -27.132  0.00  0.00    -0.646 OA
BRANCH   7   9
ATOM      9  O   UNL d   1       6.363  -8.927 -27.953  0.00  0.00    -0.773 OA
ATOM     10  H   UNL d   1       6.853  -8.588 -28.736  0.00  0.00     0.167 HD
ENDBRANCH   7   9
ENDBRANCH   1   7
BRANCH   2  11
ATOM     11  O   UNL d   1       5.591 -11.581 -27.772  0.00  0.00    -0.360 OA
ATOM     12  H   UNL d   1       4.769 -11.046 -27.802  0.00  0.00     0.217 HD
ENDBRANCH   2  11
TORSDOF 3
ENDMDL
MODEL 9
REMARK VINA RESULT:      -5.7      2.173      3.211
REMARK  3 active torsions:
REMARK  status: ('A' for Active; 'I' for Inactive)
REMARK    1  A    between atoms: C_1  and  O_3 
REMARK    2  A    between atoms: C_1  and  C_4 
REMARK    3  A    between atoms: C_5  and  O_10 
ROOT
ATOM      1  C   UNL d   1       6.469 -10.057 -26.293  0.00  0.00     0.070 A 
ATOM      2  C   UNL d   1       7.228 -10.323 -27.442  0.00  0.00     0.082 A 
ATOM      3  C   UNL d   1       7.411 -11.634 -27.880  0.00  0.00     0.037 A 
ATOM      4  C   UNL d   1       6.843 -12.694 -27.174  0.00  0.00     0.003 A 
ATOM      5  C   UNL d   1       6.091 -12.444 -26.027  0.00  0.00     0.001 A 
ATOM      6  C   UNL d   1       5.904 -11.131 -25.588  0.00  0.00     0.021 A 
ENDROOT
BRANCH   1   7
ATOM      7  C   UNL d   1       6.216  -8.693 -25.770  0.00  0.00     0.178 C 
ATOM      8  O   UNL d   1       6.411  -8.311 -24.630  0.00  0.00    -0.646 OA
BRANCH   7   9
ATOM      9  O   UNL d   1       5.716  -7.855 -26.701  0.00  0.00    -0.773 OA
ATOM     10  H   UNL d   1       4.976  -8.373 -27.090  0.00  0.00     0.167 HD
ENDBRANCH   7   9
ENDBRANCH   1   7
BRANCH   2  11
ATOM     11  O   UNL d   1       7.830  -9.354 -28.197  0.00  0.00    -0.360 OA
ATOM     12  H   UNL d   1       7.175  -8.637 -28.331  0.00  0.00     0.217 HD
ENDBRANCH   2  11
TORSDOF 3
ENDMDL
