@<TRIPOS>MOLECULE
SAL
 16 16 0 0 0
SMALL
GASTEIGER

@<TRIPOS>ATOM
      1 C           1.0427    0.0943    0.0360 C.2     1  UNL1        0.3404
      2 O           0.3653    1.1059    0.0229 O.2     1  UNL1       -0.2450
      3 O           0.4618   -1.1244    0.0468 O.3     1  UNL1       -0.4770
      4 C           2.5244    0.0300    0.0493 C.ar    1  UNL1        0.1001
      5 C           3.2530   -1.1676    0.0654 C.ar    1  UNL1        0.1308
      6 C           4.6473   -1.1466    0.0905 C.ar    1  UNL1       -0.0194
      7 C           5.3289    0.0701    0.0944 C.ar    1  UNL1       -0.0583
      8 C           4.6164    1.2680    0.0718 C.ar    1  UNL1       -0.0608
      9 C           3.2196    1.2491    0.0504 C.ar    1  UNL1       -0.0442
     10 O           2.6769   -2.4091    0.0560 O.3     1  UNL1       -0.5059
     11 H          -0.4984   -0.9096    0.0494 H       1  UNL1        0.2954
     12 H           5.2018   -2.0817    0.1072 H       1  UNL1        0.0654
     13 H           6.4159    0.0820    0.1143 H       1  UNL1        0.0619
     14 H           5.1476    2.2167    0.0723 H       1  UNL1        0.0618
     15 H           2.6752    2.1918    0.0356 H       1  UNL1        0.0627
     16 H           1.7051   -2.2809    0.0312 H       1  UNL1        0.2922
@<TRIPOS>BOND
     1     1     2    2
     2     1     3    1
     3     1     4    1
     4     3    11    1
     5     4     5   ar
     6     4     9   ar
     7     5     6   ar
     8     5    10    1
     9     6     7   ar
    10     6    12    1
    11     7     8   ar
    12     7    13    1
    13     8     9   ar
    14     8    14    1
    15     9    15    1
    16    10    16    1
