REMARK  3 active torsions:
REMARK  status: ('A' for Active; 'I' for Inactive)
REMARK    1  A    between atoms: C_1  and  O_3 
REMARK    2  A    between atoms: C_1  and  C_4 
REMARK    3  A    between atoms: C_5  and  O_10 
ROOT
ATOM      1  C   UNL d   1       2.524   0.030   0.049  0.00  0.00     0.070 A 
ATOM      2  C   UNL d   1       3.253  -1.168   0.065  0.00  0.00     0.082 A 
ATOM      3  C   UNL d   1       4.647  -1.147   0.090  0.00  0.00     0.037 A 
ATOM      4  C   UNL d   1       5.329   0.070   0.094  0.00  0.00     0.003 A 
ATOM      5  C   UNL d   1       4.616   1.268   0.072  0.00  0.00     0.001 A 
ATOM      6  C   UNL d   1       3.220   1.249   0.050  0.00  0.00     0.021 A 
ENDROOT
BRANCH   1   7
ATOM      7  C   UNL d   1       1.043   0.094   0.036  0.00  0.00     0.178 C 
ATOM      8  O   UNL d   1       0.365   1.106   0.023  0.00  0.00    -0.646 OA
BRANCH   7   9
ATOM      9  O   UNL d   1       0.462  -1.124   0.047  0.00  0.00    -0.773 OA
ATOM     10  H   UNL d   1      -0.498  -0.910   0.049  0.00  0.00     0.167 HD
ENDBRANCH   7   9
ENDBRANCH   1   7
BRANCH   2  11
ATOM     11  O   UNL d   1       2.677  -2.409   0.056  0.00  0.00    -0.360 OA
ATOM     12  H   UNL d   1       1.705  -2.281   0.031  0.00  0.00     0.217 HD
ENDBRANCH   2  11
TORSDOF 3
