@<TRIPOS>MOLECULE
SAL
 16 16 0 0 0
SMALL
GASTEIGER

@<TRIPOS>ATOM
      1 C           0.9566   -0.0602   -0.0596 C.2     1  UNL1        0.3404
      2 O           0.2789    0.9510   -0.0735 O.2     1  UNL1       -0.2450
      3 O           0.3774   -1.2791   -0.0471 O.3     1  UNL1       -0.4770
      4 C           2.4389   -0.1230   -0.0474 C.ar    1  UNL1        0.1001
      5 C           3.1681   -1.3201   -0.0316 C.ar    1  UNL1        0.1308
      6 C           4.5623   -1.2989   -0.0063 C.ar    1  UNL1       -0.0194
      7 C           5.2436   -0.0819   -0.0021 C.ar    1  UNL1       -0.0583
      8 C           4.5308    1.1157   -0.0249 C.ar    1  UNL1       -0.0608
      9 C           3.1338    1.0966   -0.0465 C.ar    1  UNL1       -0.0442
     10 O           2.5924   -2.5617   -0.0409 O.3     1  UNL1       -0.5059
     11 H          -0.5830   -1.0656   -0.0433 H       1  UNL1        0.2954
     12 H           5.1168   -2.2337    0.0102 H       1  UNL1        0.0654
     13 H           6.3306   -0.0700    0.0183 H       1  UNL1        0.0619
     14 H           5.0620    2.0646   -0.0245 H       1  UNL1        0.0618
     15 H           2.5893    2.0394   -0.0612 H       1  UNL1        0.0627
     16 H           1.6205   -2.4339   -0.0668 H       1  UNL1        0.2922
@<TRIPOS>BOND
     1     1     2    2
     2     1     3    1
     3     1     4    1
     4     3    11    1
     5     4     5   ar
     6     4     9   ar
     7     5     6   ar
     8     5    10    1
     9     6     7   ar
    10     6    12    1
    11     7     8   ar
    12     7    13    1
    13     8     9   ar
    14     8    14    1
    15     9    15    1
    16    10    16    1
