REMARK  3 active torsions:
REMARK  status: ('A' for Active; 'I' for Inactive)
REMARK    1  A    between atoms: C_1  and  O_3 
REMARK    2  A    between atoms: C_1  and  C_4 
REMARK    3  A    between atoms: C_5  and  O_10 
ROOT
ATOM      1  C   UNL d   1       2.439  -0.123  -0.047  0.00  0.00     0.070 A 
ATOM      2  C   UNL d   1       3.168  -1.320  -0.032  0.00  0.00     0.082 A 
ATOM      3  C   UNL d   1       4.562  -1.299  -0.006  0.00  0.00     0.037 A 
ATOM      4  C   UNL d   1       5.244  -0.082  -0.002  0.00  0.00     0.003 A 
ATOM      5  C   UNL d   1       4.531   1.116  -0.025  0.00  0.00     0.001 A 
ATOM      6  C   UNL d   1       3.134   1.097  -0.046  0.00  0.00     0.021 A 
ENDROOT
BRANCH   1   7
ATOM      7  C   UNL d   1       0.957  -0.060  -0.060  0.00  0.00     0.178 C 
ATOM      8  O   UNL d   1       0.279   0.951  -0.073  0.00  0.00    -0.646 OA
BRANCH   7   9
ATOM      9  O   UNL d   1       0.377  -1.279  -0.047  0.00  0.00    -0.773 OA
ATOM     10  H   UNL d   1      -0.583  -1.066  -0.043  0.00  0.00     0.167 HD
ENDBRANCH   7   9
ENDBRANCH   1   7
BRANCH   2  11
ATOM     11  O   UNL d   1       2.592  -2.562  -0.041  0.00  0.00    -0.360 OA
ATOM     12  H   UNL d   1       1.621  -2.434  -0.067  0.00  0.00     0.217 HD
ENDBRANCH   2  11
TORSDOF 3
