MODEL 1
REMARK VINA RESULT:      -7.5      0.000      0.000
REMARK  10 active torsions:
REMARK  status: ('A' for Active; 'I' for Inactive)
REMARK    1  A    between atoms: O_4  and  C_21 
REMARK    2  A    between atoms: O_4  and  C_26 
REMARK    3  A    between atoms: O_5  and  C_22 
REMARK    4  A    between atoms: O_8  and  N_12 
REMARK    5  A    between atoms: CA_16  and  N_11 
REMARK       I    between atoms: N_11  and  C_23 
REMARK    6  A    between atoms: N_14  and  C_29 
REMARK    7  A    between atoms: CA_18  and  C_22 
REMARK    8  A    between atoms: C_19  and  C_21 
REMARK    9  A    between atoms: C_23  and  C_24 
REMARK   10  A    between atoms: C_24  and  C_25 
ROOT
ATOM      1  S   UNL d   1      38.555  -9.714  -1.982  0.00  0.00    -0.136 SA
ATOM      2  O   UNL d   1      41.889  -7.406  -2.835  0.00  0.00    -0.271 OA
ATOM      3  N   UNL d   1      39.668  -7.302  -2.146  0.00  0.00    -0.293 N 
ATOM      4  C   UNL d   1      38.699  -8.128  -2.863  0.00  0.00     0.187 C 
ATOM      5  CA  UNL d   1      39.699  -8.049  -4.073  0.00  0.00     0.211 C 
ATOM      6  C   UNL d   1      40.710  -7.592  -2.976  0.00  0.00     0.251 C 
ATOM      7  CA  UNL d   1      39.638  -7.076  -0.786  0.00  0.00     0.117 C 
ATOM      8  C   UNL d   1      38.831  -7.811   0.036  0.00  0.00    -0.013 C 
ATOM      9  C   UNL d   1      37.945  -8.937  -0.449  0.00  0.00     0.115 C 
ENDROOT
BRANCH   5  10
ATOM     10  N   UNL d   1      39.852  -9.274  -4.936  0.00  0.00    -0.339 N 
ATOM     11  C   UNL d   1      39.139  -9.275  -6.133  0.00  0.00     0.275 C 
ATOM     12  O   UNL d   1      39.200 -10.246  -6.888  0.00  0.00    -0.266 OA
ATOM     13  H   UNL d   1      40.569  -9.977  -4.791  0.00  0.00     0.163 HD
BRANCH  11  14
ATOM     14  C   UNL d   1      38.280  -8.082  -6.572  0.00  0.00     0.180 C 
ATOM     15  N   UNL d   1      38.583  -7.096  -7.360  0.00  0.00    -0.126 NA
BRANCH  15  16
ATOM     16  O   UNL d   1      39.863  -7.090  -7.917  0.00  0.00    -0.261 OA
ATOM     17  C   UNL d   1      39.707  -7.507  -9.286  0.00  0.00     0.240 C 
ENDBRANCH  15  16
BRANCH  14  18
ATOM     18  C   UNL d   1      36.963  -7.945  -5.930  0.00  0.00     0.102 A 
ATOM     19  N   UNL d   1      36.436  -8.944  -5.121  0.00  0.00    -0.222 NA
ATOM     20  C   UNL d   1      35.333  -8.530  -4.549  0.00  0.00     0.164 A 
ATOM     21  S   UNL d   1      34.798  -6.968  -5.011  0.00  0.00    -0.062 SA
ATOM     22  C   UNL d   1      36.172  -6.810  -6.020  0.00  0.00     0.087 A 
BRANCH  20  23
ATOM     23  N   UNL d   1      34.654  -9.268  -3.660  0.00  0.00    -0.378 N 
ATOM     24  H   UNL d   1      34.247 -10.146  -3.955  0.00  0.00     0.158 HD
ATOM     25  H   UNL d   1      34.989  -9.239  -2.704  0.00  0.00     0.158 HD
ENDBRANCH  20  23
ENDBRANCH  14  18
ENDBRANCH  11  14
ENDBRANCH   5  10
BRANCH   7  26
ATOM     26  C   UNL d   1      40.424  -5.893  -0.243  0.00  0.00     0.194 C 
ATOM     27  OXT UNL d   1      39.903  -4.832   0.076  0.00  0.00    -0.645 OA
BRANCH  26  28
ATOM     28  O   UNL d   1      41.759  -6.031  -0.278  0.00  0.00    -0.772 OA
ATOM     29  H   UNL d   1      42.088  -6.854  -0.699  0.00  0.00     0.167 HD
ENDBRANCH  26  28
ENDBRANCH   7  26
BRANCH   8  30
ATOM     30  C   UNL d   1      38.780  -7.636   1.547  0.00  0.00     0.216 C 
BRANCH  30  31
ATOM     31  O   UNL d   1      37.508  -7.099   1.944  0.00  0.00    -0.317 OA
BRANCH  31  32
ATOM     32  C   UNL d   1      36.993  -7.569   3.110  0.00  0.00     0.255 C 
ATOM     33  O   UNL d   1      36.342  -6.919   3.913  0.00  0.00    -0.266 OA
ATOM     34  C   UNL d   1      37.323  -9.022   3.266  0.00  0.00     0.126 C 
ENDBRANCH  31  32
ENDBRANCH  30  31
ENDBRANCH   8  30
TORSDOF 10
ENDMDL
MODEL 2
REMARK VINA RESULT:      -7.3      1.985      2.481
REMARK  10 active torsions:
REMARK  status: ('A' for Active; 'I' for Inactive)
REMARK    1  A    between atoms: O_4  and  C_21 
REMARK    2  A    between atoms: O_4  and  C_26 
REMARK    3  A    between atoms: O_5  and  C_22 
REMARK    4  A    between atoms: O_8  and  N_12 
REMARK    5  A    between atoms: CA_16  and  N_11 
REMARK       I    between atoms: N_11  and  C_23 
REMARK    6  A    between atoms: N_14  and  C_29 
REMARK    7  A    between atoms: CA_18  and  C_22 
REMARK    8  A    between atoms: C_19  and  C_21 
REMARK    9  A    between atoms: C_23  and  C_24 
REMARK   10  A    between atoms: C_24  and  C_25 
ROOT
ATOM      1  S   UNL d   1      37.484  -8.515  -2.905  0.00  0.00    -0.136 SA
ATOM      2  O   UNL d   1      41.581  -8.669  -2.309  0.00  0.00    -0.271 OA
ATOM      3  N   UNL d   1      39.777  -7.216  -2.543  0.00  0.00    -0.293 N 
ATOM      4  C   UNL d   1      38.818  -7.497  -3.609  0.00  0.00     0.187 C 
ATOM      5  CA  UNL d   1      40.004  -8.236  -4.327  0.00  0.00     0.211 C 
ATOM      6  C   UNL d   1      40.650  -8.198  -2.907  0.00  0.00     0.251 C 
ATOM      7  CA  UNL d   1      39.434  -6.735  -1.297  0.00  0.00     0.117 C 
ATOM      8  C   UNL d   1      38.133  -6.712  -0.881  0.00  0.00    -0.013 C 
ATOM      9  C   UNL d   1      36.980  -7.233  -1.711  0.00  0.00     0.115 C 
ENDROOT
BRANCH   5  10
ATOM     10  N   UNL d   1      39.684  -9.490  -5.098  0.00  0.00    -0.339 N 
ATOM     11  C   UNL d   1      39.700  -9.375  -6.487  0.00  0.00     0.275 C 
ATOM     12  O   UNL d   1      39.435 -10.352  -7.190  0.00  0.00    -0.266 OA
ATOM     13  H   UNL d   1      39.655 -10.414  -4.682  0.00  0.00     0.163 HD
BRANCH  11  14
ATOM     14  C   UNL d   1      40.065  -8.064  -7.194  0.00  0.00     0.180 C 
ATOM     15  N   UNL d   1      41.217  -7.473  -7.288  0.00  0.00    -0.126 NA
BRANCH  15  16
ATOM     16  O   UNL d   1      42.308  -8.095  -6.679  0.00  0.00    -0.261 OA
ATOM     17  C   UNL d   1      43.178  -8.514  -7.746  0.00  0.00     0.240 C 
ENDBRANCH  15  16
BRANCH  14  18
ATOM     18  C   UNL d   1      38.949  -7.283  -7.752  0.00  0.00     0.102 A 
ATOM     19  N   UNL d   1      38.015  -6.657  -6.937  0.00  0.00    -0.222 NA
ATOM     20  C   UNL d   1      37.218  -5.905  -7.654  0.00  0.00     0.164 A 
ATOM     21  S   UNL d   1      37.463  -5.969  -9.349  0.00  0.00    -0.062 SA
ATOM     22  C   UNL d   1      38.767  -7.050  -9.107  0.00  0.00     0.087 A 
BRANCH  20  23
ATOM     23  N   UNL d   1      36.267  -5.132  -7.113  0.00  0.00    -0.378 N 
ATOM     24  H   UNL d   1      35.335  -5.146  -7.507  0.00  0.00     0.158 HD
ATOM     25  H   UNL d   1      36.317  -4.994  -6.110  0.00  0.00     0.158 HD
ENDBRANCH  20  23
ENDBRANCH  14  18
ENDBRANCH  11  14
ENDBRANCH   5  10
BRANCH   7  26
ATOM     26  C   UNL d   1      40.528  -6.101  -0.453  0.00  0.00     0.194 C 
ATOM     27  OXT UNL d   1      40.703  -4.891  -0.380  0.00  0.00    -0.645 OA
BRANCH  26  28
ATOM     28  O   UNL d   1      41.398  -6.964   0.096  0.00  0.00    -0.772 OA
ATOM     29  H   UNL d   1      41.114  -7.903   0.102  0.00  0.00     0.167 HD
ENDBRANCH  26  28
ENDBRANCH   7  26
BRANCH   8  30
ATOM     30  C   UNL d   1      37.694  -6.229   0.494  0.00  0.00     0.216 C 
BRANCH  30  31
ATOM     31  O   UNL d   1      37.223  -7.333   1.283  0.00  0.00    -0.317 OA
BRANCH  31  32
ATOM     32  C   UNL d   1      38.021  -7.721   2.312  0.00  0.00     0.255 C 
ATOM     33  O   UNL d   1      39.229  -7.555   2.377  0.00  0.00    -0.266 OA
ATOM     34  C   UNL d   1      37.198  -8.373   3.380  0.00  0.00     0.126 C 
ENDBRANCH  31  32
ENDBRANCH  30  31
ENDBRANCH   8  30
TORSDOF 10
ENDMDL
MODEL 3
REMARK VINA RESULT:      -7.2      2.826      8.267
REMARK  10 active torsions:
REMARK  status: ('A' for Active; 'I' for Inactive)
REMARK    1  A    between atoms: O_4  and  C_21 
REMARK    2  A    between atoms: O_4  and  C_26 
REMARK    3  A    between atoms: O_5  and  C_22 
REMARK    4  A    between atoms: O_8  and  N_12 
REMARK    5  A    between atoms: CA_16  and  N_11 
REMARK       I    between atoms: N_11  and  C_23 
REMARK    6  A    between atoms: N_14  and  C_29 
REMARK    7  A    between atoms: CA_18  and  C_22 
REMARK    8  A    between atoms: C_19  and  C_21 
REMARK    9  A    between atoms: C_23  and  C_24 
REMARK   10  A    between atoms: C_24  and  C_25 
ROOT
ATOM      1  S   UNL d   1      39.234  -9.293  -5.264  0.00  0.00    -0.136 SA
ATOM      2  O   UNL d   1      35.466  -7.815  -4.381  0.00  0.00    -0.271 OA
ATOM      3  N   UNL d   1      37.544  -7.238  -5.255  0.00  0.00    -0.293 N 
ATOM      4  C   UNL d   1      38.731  -7.701  -4.539  0.00  0.00     0.187 C 
ATOM      5  CA  UNL d   1      37.809  -7.734  -3.266  0.00  0.00     0.211 C 
ATOM      6  C   UNL d   1      36.659  -7.680  -4.317  0.00  0.00     0.251 C 
ATOM      7  CA  UNL d   1      37.443  -7.175  -6.629  0.00  0.00     0.117 C 
ATOM      8  C   UNL d   1      38.368  -7.775  -7.435  0.00  0.00    -0.013 C 
ATOM      9  C   UNL d   1      39.541  -8.576  -6.912  0.00  0.00     0.115 C 
ENDROOT
BRANCH   5  10
ATOM     10  N   UNL d   1      38.025  -8.847  -2.274  0.00  0.00    -0.339 N 
ATOM     11  C   UNL d   1      38.967  -8.605  -1.276  0.00  0.00     0.275 C 
ATOM     12  O   UNL d   1      39.211  -9.470  -0.435  0.00  0.00    -0.266 OA
ATOM     13  H   UNL d   1      37.406  -9.644  -2.182  0.00  0.00     0.163 HD
BRANCH  11  14
ATOM     14  C   UNL d   1      39.713  -7.270  -1.164  0.00  0.00     0.180 C 
ATOM     15  N   UNL d   1      39.237  -6.072  -1.002  0.00  0.00    -0.126 NA
BRANCH  15  16
ATOM     16  O   UNL d   1      37.852  -5.942  -0.899  0.00  0.00    -0.261 OA
ATOM     17  C   UNL d   1      37.542  -6.041   0.504  0.00  0.00     0.240 C 
ENDBRANCH  15  16
BRANCH  14  18
ATOM     18  C   UNL d   1      41.167  -7.305  -1.390  0.00  0.00     0.102 A 
ATOM     19  N   UNL d   1      42.049  -6.592  -0.588  0.00  0.00    -0.222 NA
ATOM     20  C   UNL d   1      43.286  -6.900  -0.887  0.00  0.00     0.164 A 
ATOM     21  S   UNL d   1      43.484  -7.981  -2.202  0.00  0.00    -0.062 SA
ATOM     22  C   UNL d   1      41.783  -8.083  -2.358  0.00  0.00     0.087 A 
BRANCH  20  23
ATOM     23  N   UNL d   1      44.339  -6.411  -0.218  0.00  0.00    -0.378 N 
ATOM     24  H   UNL d   1      44.582  -5.435  -0.325  0.00  0.00     0.158 HD
ATOM     25  H   UNL d   1      44.513  -6.808   0.697  0.00  0.00     0.158 HD
ENDBRANCH  20  23
ENDBRANCH  14  18
ENDBRANCH  11  14
ENDBRANCH   5  10
BRANCH   7  26
ATOM     26  C   UNL d   1      36.350  -6.301  -7.223  0.00  0.00     0.194 C 
ATOM     27  OXT UNL d   1      36.470  -5.093  -7.384  0.00  0.00    -0.645 OA
BRANCH  26  28
ATOM     28  O   UNL d   1      35.173  -6.916  -7.422  0.00  0.00    -0.772 OA
ATOM     29  H   UNL d   1      34.407  -6.322  -7.575  0.00  0.00     0.167 HD
ENDBRANCH  26  28
ENDBRANCH   7  26
BRANCH   8  30
ATOM     30  C   UNL d   1      38.292  -7.773  -8.955  0.00  0.00     0.216 C 
BRANCH  30  31
ATOM     31  O   UNL d   1      38.941  -6.606  -9.485  0.00  0.00    -0.317 OA
BRANCH  31  32
ATOM     32  C   UNL d   1      38.226  -5.873 -10.378  0.00  0.00     0.255 C 
ATOM     33  O   UNL d   1      38.515  -4.754 -10.773  0.00  0.00    -0.266 OA
ATOM     34  C   UNL d   1      37.025  -6.646 -10.830  0.00  0.00     0.126 C 
ENDBRANCH  31  32
ENDBRANCH  30  31
ENDBRANCH   8  30
TORSDOF 10
ENDMDL
MODEL 4
REMARK VINA RESULT:      -7.0      3.093      8.039
REMARK  10 active torsions:
REMARK  status: ('A' for Active; 'I' for Inactive)
REMARK    1  A    between atoms: O_4  and  C_21 
REMARK    2  A    between atoms: O_4  and  C_26 
REMARK    3  A    between atoms: O_5  and  C_22 
REMARK    4  A    between atoms: O_8  and  N_12 
REMARK    5  A    between atoms: CA_16  and  N_11 
REMARK       I    between atoms: N_11  and  C_23 
REMARK    6  A    between atoms: N_14  and  C_29 
REMARK    7  A    between atoms: CA_18  and  C_22 
REMARK    8  A    between atoms: C_19  and  C_21 
REMARK    9  A    between atoms: C_23  and  C_24 
REMARK   10  A    between atoms: C_24  and  C_25 
ROOT
ATOM      1  S   UNL d   1      40.012  -8.910  -6.737  0.00  0.00    -0.136 SA
ATOM      2  O   UNL d   1      36.221  -8.651  -5.085  0.00  0.00    -0.271 OA
ATOM      3  N   UNL d   1      37.974  -7.389  -5.952  0.00  0.00    -0.293 N 
ATOM      4  C   UNL d   1      39.329  -7.734  -5.527  0.00  0.00     0.187 C 
ATOM      5  CA  UNL d   1      38.652  -8.321  -4.235  0.00  0.00     0.211 C 
ATOM      6  C   UNL d   1      37.358  -8.261  -5.104  0.00  0.00     0.251 C 
ATOM      7  CA  UNL d   1      37.640  -6.988  -7.228  0.00  0.00     0.117 C 
ATOM      8  C   UNL d   1      38.522  -7.116  -8.264  0.00  0.00    -0.013 C 
ATOM      9  C   UNL d   1      39.898  -7.728  -8.121  0.00  0.00     0.115 C 
ENDROOT
BRANCH   5  10
ATOM     10  N   UNL d   1      39.241  -9.575  -3.644  0.00  0.00    -0.339 N 
ATOM     11  C   UNL d   1      40.062  -9.402  -2.532  0.00  0.00     0.275 C 
ATOM     12  O   UNL d   1      40.593 -10.377  -1.999  0.00  0.00    -0.266 OA
ATOM     13  H   UNL d   1      38.925 -10.510  -3.881  0.00  0.00     0.163 HD
BRANCH  11  14
ATOM     14  C   UNL d   1      40.321  -8.022  -1.916  0.00  0.00     0.180 C 
ATOM     15  N   UNL d   1      41.327  -7.219  -2.088  0.00  0.00    -0.126 NA
BRANCH  15  16
ATOM     16  O   UNL d   1      42.334  -7.632  -2.962  0.00  0.00    -0.261 OA
ATOM     17  C   UNL d   1      43.451  -8.013  -2.137  0.00  0.00     0.240 C 
ENDBRANCH  15  16
BRANCH  14  18
ATOM     18  C   UNL d   1      39.371  -7.570  -0.888  0.00  0.00     0.102 A 
ATOM     19  N   UNL d   1      39.349  -8.126   0.385  0.00  0.00    -0.222 NA
ATOM     20  C   UNL d   1      38.529  -7.460   1.158  0.00  0.00     0.164 A 
ATOM     21  S   UNL d   1      37.657  -6.194   0.400  0.00  0.00    -0.062 SA
ATOM     22  C   UNL d   1      38.472  -6.528  -1.067  0.00  0.00     0.087 A 
BRANCH  20  23
ATOM     23  N   UNL d   1      38.369  -7.739   2.459  0.00  0.00    -0.378 N 
ATOM     24  H   UNL d   1      37.445  -7.957   2.808  0.00  0.00     0.158 HD
ATOM     25  H   UNL d   1      39.134  -8.226   2.911  0.00  0.00     0.158 HD
ENDBRANCH  20  23
ENDBRANCH  14  18
ENDBRANCH  11  14
ENDBRANCH   5  10
BRANCH   7  26
ATOM     26  C   UNL d   1      36.315  -6.270  -7.424  0.00  0.00     0.194 C 
ATOM     27  OXT UNL d   1      35.303  -6.827  -7.830  0.00  0.00    -0.645 OA
BRANCH  26  28
ATOM     28  O   UNL d   1      36.359  -4.937  -7.267  0.00  0.00    -0.772 OA
ATOM     29  H   UNL d   1      35.511  -4.466  -7.411  0.00  0.00     0.167 HD
ENDBRANCH  26  28
ENDBRANCH   7  26
BRANCH   8  30
ATOM     30  C   UNL d   1      38.201  -6.726  -9.699  0.00  0.00     0.216 C 
BRANCH  30  31
ATOM     31  O   UNL d   1      38.255  -5.299  -9.853  0.00  0.00    -0.317 OA
BRANCH  31  32
ATOM     32  C   UNL d   1      38.476  -4.836 -11.111  0.00  0.00     0.255 C 
ATOM     33  O   UNL d   1      39.152  -3.862 -11.402  0.00  0.00    -0.266 OA
ATOM     34  C   UNL d   1      37.779  -5.711 -12.108  0.00  0.00     0.126 C 
ENDBRANCH  31  32
ENDBRANCH  30  31
ENDBRANCH   8  30
TORSDOF 10
ENDMDL
MODEL 5
REMARK VINA RESULT:      -6.8     11.911     17.241
REMARK  10 active torsions:
REMARK  status: ('A' for Active; 'I' for Inactive)
REMARK    1  A    between atoms: O_4  and  C_21 
REMARK    2  A    between atoms: O_4  and  C_26 
REMARK    3  A    between atoms: O_5  and  C_22 
REMARK    4  A    between atoms: O_8  and  N_12 
REMARK    5  A    between atoms: CA_16  and  N_11 
REMARK       I    between atoms: N_11  and  C_23 
REMARK    6  A    between atoms: N_14  and  C_29 
REMARK    7  A    between atoms: CA_18  and  C_22 
REMARK    8  A    between atoms: C_19  and  C_21 
REMARK    9  A    between atoms: C_23  and  C_24 
REMARK   10  A    between atoms: C_24  and  C_25 
ROOT
ATOM      1  S   UNL d   1      36.149 -11.852  12.167  0.00  0.00    -0.136 SA
ATOM      2  O   UNL d   1      37.548  -8.170  13.453  0.00  0.00    -0.271 OA
ATOM      3  N   UNL d   1      37.816  -9.807  11.820  0.00  0.00    -0.293 N 
ATOM      4  C   UNL d   1      37.846 -11.201  12.259  0.00  0.00     0.187 C 
ATOM      5  CA  UNL d   1      38.340 -10.636  13.640  0.00  0.00     0.211 C 
ATOM      6  C   UNL d   1      37.796  -9.286  13.080  0.00  0.00     0.251 C 
ATOM      7  CA  UNL d   1      37.216  -9.373  10.657  0.00  0.00     0.117 C 
ATOM      8  C   UNL d   1      36.387 -10.190   9.941  0.00  0.00    -0.013 C 
ATOM      9  C   UNL d   1      36.028 -11.598  10.365  0.00  0.00     0.115 C 
ENDROOT
BRANCH   5  10
ATOM     10  N   UNL d   1      37.848 -11.315  14.891  0.00  0.00    -0.339 N 
ATOM     11  C   UNL d   1      38.569 -12.433  15.306  0.00  0.00     0.275 C 
ATOM     12  O   UNL d   1      38.222 -13.053  16.312  0.00  0.00    -0.266 OA
ATOM     13  H   UNL d   1      37.174 -10.902  15.527  0.00  0.00     0.163 HD
BRANCH  11  14
ATOM     14  C   UNL d   1      39.816 -12.923  14.560  0.00  0.00     0.180 C 
ATOM     15  N   UNL d   1      39.911 -13.778  13.587  0.00  0.00    -0.126 NA
BRANCH  15  16
ATOM     16  O   UNL d   1      38.727 -14.347  13.117  0.00  0.00    -0.261 OA
ATOM     17  C   UNL d   1      38.356 -15.354  14.077  0.00  0.00     0.240 C 
ENDBRANCH  15  16
BRANCH  14  18
ATOM     18  C   UNL d   1      41.116 -12.467  15.078  0.00  0.00     0.102 A 
ATOM     19  N   UNL d   1      41.389 -12.429  16.439  0.00  0.00    -0.222 NA
ATOM     20  C   UNL d   1      42.649 -12.137  16.642  0.00  0.00     0.164 A 
ATOM     21  S   UNL d   1      43.567 -11.793  15.236  0.00  0.00    -0.062 SA
ATOM     22  C   UNL d   1      42.186 -12.104  14.274  0.00  0.00     0.087 A 
BRANCH  20  23
ATOM     23  N   UNL d   1      43.200 -12.103  17.863  0.00  0.00    -0.378 N 
ATOM     24  H   UNL d   1      44.106 -11.671  17.984  0.00  0.00     0.158 HD
ATOM     25  H   UNL d   1      42.559 -12.002  18.642  0.00  0.00     0.158 HD
ENDBRANCH  20  23
ENDBRANCH  14  18
ENDBRANCH  11  14
ENDBRANCH   5  10
BRANCH   7  26
ATOM     26  C   UNL d   1      37.613  -8.009  10.118  0.00  0.00     0.194 C 
ATOM     27  OXT UNL d   1      38.637  -7.812   9.477  0.00  0.00    -0.645 OA
BRANCH  26  28
ATOM     28  O   UNL d   1      36.838  -6.989  10.521  0.00  0.00    -0.772 OA
ATOM     29  H   UNL d   1      37.297  -6.129  10.635  0.00  0.00     0.167 HD
ENDBRANCH  26  28
ENDBRANCH   7  26
BRANCH   8  30
ATOM     30  C   UNL d   1      35.666  -9.759   8.672  0.00  0.00     0.216 C 
BRANCH  30  31
ATOM     31  O   UNL d   1      36.609  -9.560   7.607  0.00  0.00    -0.317 OA
BRANCH  31  32
ATOM     32  C   UNL d   1      36.109  -9.061   6.446  0.00  0.00     0.255 C 
ATOM     33  O   UNL d   1      35.222  -9.567   5.777  0.00  0.00    -0.266 OA
ATOM     34  C   UNL d   1      36.796  -7.773   6.105  0.00  0.00     0.126 C 
ENDBRANCH  31  32
ENDBRANCH  30  31
ENDBRANCH   8  30
TORSDOF 10
ENDMDL
MODEL 6
REMARK VINA RESULT:      -6.8      3.238      7.530
REMARK  10 active torsions:
REMARK  status: ('A' for Active; 'I' for Inactive)
REMARK    1  A    between atoms: O_4  and  C_21 
REMARK    2  A    between atoms: O_4  and  C_26 
REMARK    3  A    between atoms: O_5  and  C_22 
REMARK    4  A    between atoms: O_8  and  N_12 
REMARK    5  A    between atoms: CA_16  and  N_11 
REMARK       I    between atoms: N_11  and  C_23 
REMARK    6  A    between atoms: N_14  and  C_29 
REMARK    7  A    between atoms: CA_18  and  C_22 
REMARK    8  A    between atoms: C_19  and  C_21 
REMARK    9  A    between atoms: C_23  and  C_24 
REMARK   10  A    between atoms: C_24  and  C_25 
ROOT
ATOM      1  S   UNL d   1      38.900  -8.771  -6.493  0.00  0.00    -0.136 SA
ATOM      2  O   UNL d   1      36.575  -8.818  -3.064  0.00  0.00    -0.271 OA
ATOM      3  N   UNL d   1      37.545  -7.415  -4.647  0.00  0.00    -0.293 N 
ATOM      4  C   UNL d   1      38.929  -7.685  -5.032  0.00  0.00     0.187 C 
ATOM      5  CA  UNL d   1      39.070  -8.361  -3.619  0.00  0.00     0.211 C 
ATOM      6  C   UNL d   1      37.511  -8.355  -3.660  0.00  0.00     0.251 C 
ATOM      7  CA  UNL d   1      36.566  -6.991  -5.520  0.00  0.00     0.117 C 
ATOM      8  C   UNL d   1      36.761  -7.024  -6.872  0.00  0.00    -0.013 C 
ATOM      9  C   UNL d   1      38.021  -7.550  -7.524  0.00  0.00     0.115 C 
ENDROOT
BRANCH   5  10
ATOM     10  N   UNL d   1      39.929  -9.594  -3.515  0.00  0.00    -0.339 N 
ATOM     11  C   UNL d   1      41.105  -9.461  -2.781  0.00  0.00     0.275 C 
ATOM     12  O   UNL d   1      41.869 -10.420  -2.660  0.00  0.00    -0.266 OA
ATOM     13  H   UNL d   1      39.611 -10.523  -3.771  0.00  0.00     0.163 HD
BRANCH  11  14
ATOM     14  C   UNL d   1      41.487  -8.152  -2.081  0.00  0.00     0.180 C 
ATOM     15  N   UNL d   1      42.581  -7.457  -2.175  0.00  0.00    -0.126 NA
BRANCH  15  16
ATOM     16  O   UNL d   1      43.572  -7.935  -3.034  0.00  0.00    -0.261 OA
ATOM     17  C   UNL d   1      44.694  -8.280  -2.201  0.00  0.00     0.240 C 
ENDBRANCH  15  16
BRANCH  14  18
ATOM     18  C   UNL d   1      40.551  -7.649  -1.063  0.00  0.00     0.102 A 
ATOM     19  N   UNL d   1      39.873  -8.506  -0.206  0.00  0.00    -0.222 NA
ATOM     20  C   UNL d   1      39.222  -7.821   0.700  0.00  0.00     0.164 A 
ATOM     21  S   UNL d   1      39.294  -6.116   0.535  0.00  0.00    -0.062 SA
ATOM     22  C   UNL d   1      40.312  -6.303  -0.827  0.00  0.00     0.087 A 
BRANCH  20  23
ATOM     23  N   UNL d   1      38.539  -8.399   1.698  0.00  0.00    -0.378 N 
ATOM     24  H   UNL d   1      39.006  -8.580   2.576  0.00  0.00     0.158 HD
ATOM     25  H   UNL d   1      37.556  -8.163   1.764  0.00  0.00     0.158 HD
ENDBRANCH  20  23
ENDBRANCH  14  18
ENDBRANCH  11  14
ENDBRANCH   5  10
BRANCH   7  26
ATOM     26  C   UNL d   1      35.317  -6.354  -4.934  0.00  0.00     0.194 C 
ATOM     27  OXT UNL d   1      34.222  -6.903  -4.932  0.00  0.00    -0.645 OA
BRANCH  26  28
ATOM     28  O   UNL d   1      35.455  -5.075  -4.549  0.00  0.00    -0.772 OA
ATOM     29  H   UNL d   1      35.382  -4.914  -3.584  0.00  0.00     0.167 HD
ENDBRANCH  26  28
ENDBRANCH   7  26
BRANCH   8  30
ATOM     30  C   UNL d   1      35.708  -6.606  -7.888  0.00  0.00     0.216 C 
BRANCH  30  31
ATOM     31  O   UNL d   1      36.247  -6.664  -9.218  0.00  0.00    -0.317 OA
BRANCH  31  32
ATOM     32  C   UNL d   1      35.431  -7.172 -10.178  0.00  0.00     0.255 C 
ATOM     33  O   UNL d   1      34.622  -8.073 -10.020  0.00  0.00    -0.266 OA
ATOM     34  C   UNL d   1      35.651  -6.450 -11.472  0.00  0.00     0.126 C 
ENDBRANCH  31  32
ENDBRANCH  30  31
ENDBRANCH   8  30
TORSDOF 10
ENDMDL
MODEL 7
REMARK VINA RESULT:      -6.7     13.004     18.114
REMARK  10 active torsions:
REMARK  status: ('A' for Active; 'I' for Inactive)
REMARK    1  A    between atoms: O_4  and  C_21 
REMARK    2  A    between atoms: O_4  and  C_26 
REMARK    3  A    between atoms: O_5  and  C_22 
REMARK    4  A    between atoms: O_8  and  N_12 
REMARK    5  A    between atoms: CA_16  and  N_11 
REMARK       I    between atoms: N_11  and  C_23 
REMARK    6  A    between atoms: N_14  and  C_29 
REMARK    7  A    between atoms: CA_18  and  C_22 
REMARK    8  A    between atoms: C_19  and  C_21 
REMARK    9  A    between atoms: C_23  and  C_24 
REMARK   10  A    between atoms: C_24  and  C_25 
ROOT
ATOM      1  S   UNL d   1      36.615 -12.740  11.111  0.00  0.00    -0.136 SA
ATOM      2  O   UNL d   1      37.321 -10.996  14.802  0.00  0.00    -0.271 OA
ATOM      3  N   UNL d   1      38.078 -11.093  12.603  0.00  0.00    -0.293 N 
ATOM      4  C   UNL d   1      38.179 -12.411  11.981  0.00  0.00     0.187 C 
ATOM      5  CA  UNL d   1      38.334 -12.964  13.444  0.00  0.00     0.211 C 
ATOM      6  C   UNL d   1      37.759 -11.569  13.840  0.00  0.00     0.251 C 
ATOM      7  CA  UNL d   1      37.666  -9.954  11.945  0.00  0.00     0.117 C 
ATOM      8  C   UNL d   1      37.086 -10.021  10.710  0.00  0.00    -0.013 C 
ATOM      9  C   UNL d   1      36.812 -11.320   9.983  0.00  0.00     0.115 C 
ENDROOT
BRANCH   5  10
ATOM     10  N   UNL d   1      37.692 -14.288  13.764  0.00  0.00    -0.339 N 
ATOM     11  C   UNL d   1      38.381 -15.104  14.659  0.00  0.00     0.275 C 
ATOM     12  O   UNL d   1      37.929 -16.209  14.962  0.00  0.00    -0.266 OA
ATOM     13  H   UNL d   1      36.733 -14.519  13.528  0.00  0.00     0.163 HD
BRANCH  11  14
ATOM     14  C   UNL d   1      39.696 -14.667  15.316  0.00  0.00     0.180 C 
ATOM     15  N   UNL d   1      40.919 -14.883  14.935  0.00  0.00    -0.126 NA
BRANCH  15  16
ATOM     16  O   UNL d   1      41.104 -15.606  13.755  0.00  0.00    -0.261 OA
ATOM     17  C   UNL d   1      42.043 -16.651  14.068  0.00  0.00     0.240 C 
ENDBRANCH  15  16
BRANCH  14  18
ATOM     18  C   UNL d   1      39.591 -14.010  16.628  0.00  0.00     0.102 A 
ATOM     19  N   UNL d   1      40.496 -13.036  17.034  0.00  0.00    -0.222 NA
ATOM     20  C   UNL d   1      40.109 -12.499  18.163  0.00  0.00     0.164 A 
ATOM     21  S   UNL d   1      38.702 -13.181  18.866  0.00  0.00    -0.062 SA
ATOM     22  C   UNL d   1      38.570 -14.248  17.535  0.00  0.00     0.087 A 
BRANCH  20  23
ATOM     23  N   UNL d   1      40.760 -11.483  18.746  0.00  0.00    -0.378 N 
ATOM     24  H   UNL d   1      40.253 -10.857  19.358  0.00  0.00     0.158 HD
ATOM     25  H   UNL d   1      41.727 -11.655  18.998  0.00  0.00     0.158 HD
ENDBRANCH  20  23
ENDBRANCH  14  18
ENDBRANCH  11  14
ENDBRANCH   5  10
BRANCH   7  26
ATOM     26  C   UNL d   1      38.003  -8.609  12.569  0.00  0.00     0.194 C 
ATOM     27  OXT UNL d   1      37.239  -8.003  13.310  0.00  0.00    -0.645 OA
BRANCH  26  28
ATOM     28  O   UNL d   1      39.142  -8.047  12.133  0.00  0.00    -0.772 OA
ATOM     29  H   UNL d   1      39.907  -8.115  12.744  0.00  0.00     0.167 HD
ENDBRANCH  26  28
ENDBRANCH   7  26
BRANCH   8  30
ATOM     30  C   UNL d   1      36.576  -8.806   9.948  0.00  0.00     0.216 C 
BRANCH  30  31
ATOM     31  O   UNL d   1      37.298  -8.652   8.715  0.00  0.00    -0.317 OA
BRANCH  31  32
ATOM     32  C   UNL d   1      38.037  -7.519   8.587  0.00  0.00     0.255 C 
ATOM     33  O   UNL d   1      38.629  -6.951   9.490  0.00  0.00    -0.266 OA
ATOM     34  C   UNL d   1      38.038  -7.068   7.158  0.00  0.00     0.126 C 
ENDBRANCH  31  32
ENDBRANCH  30  31
ENDBRANCH   8  30
TORSDOF 10
ENDMDL
MODEL 8
REMARK VINA RESULT:      -6.6      2.930      8.540
REMARK  10 active torsions:
REMARK  status: ('A' for Active; 'I' for Inactive)
REMARK    1  A    between atoms: O_4  and  C_21 
REMARK    2  A    between atoms: O_4  and  C_26 
REMARK    3  A    between atoms: O_5  and  C_22 
REMARK    4  A    between atoms: O_8  and  N_12 
REMARK    5  A    between atoms: CA_16  and  N_11 
REMARK       I    between atoms: N_11  and  C_23 
REMARK    6  A    between atoms: N_14  and  C_29 
REMARK    7  A    between atoms: CA_18  and  C_22 
REMARK    8  A    between atoms: C_19  and  C_21 
REMARK    9  A    between atoms: C_23  and  C_24 
REMARK   10  A    between atoms: C_24  and  C_25 
ROOT
ATOM      1  S   UNL d   1      36.957  -6.480  -6.151  0.00  0.00    -0.136 SA
ATOM      2  O   UNL d   1      41.033  -6.901  -5.532  0.00  0.00    -0.271 OA
ATOM      3  N   UNL d   1      39.122  -8.025  -6.243  0.00  0.00    -0.293 N 
ATOM      4  C   UNL d   1      37.908  -7.864  -5.447  0.00  0.00     0.187 C 
ATOM      5  CA  UNL d   1      38.873  -7.554  -4.246  0.00  0.00     0.211 C 
ATOM      6  C   UNL d   1      39.923  -7.339  -5.379  0.00  0.00     0.251 C 
ATOM      7  CA  UNL d   1      39.143  -8.101  -7.620  0.00  0.00     0.117 C 
ATOM      8  C   UNL d   1      38.040  -7.788  -8.363  0.00  0.00    -0.013 C 
ATOM      9  C   UNL d   1      36.737  -7.303  -7.764  0.00  0.00     0.115 C 
ENDROOT
BRANCH   5  10
ATOM     10  N   UNL d   1      38.443  -6.505  -3.254  0.00  0.00    -0.339 N 
ATOM     11  C   UNL d   1      38.863  -6.695  -1.939  0.00  0.00     0.275 C 
ATOM     12  O   UNL d   1      38.541  -5.889  -1.066  0.00  0.00    -0.266 OA
ATOM     13  H   UNL d   1      38.051  -5.608  -3.520  0.00  0.00     0.163 HD
BRANCH  11  14
ATOM     14  C   UNL d   1      39.748  -7.878  -1.528  0.00  0.00     0.180 C 
ATOM     15  N   UNL d   1      39.406  -9.028  -1.032  0.00  0.00    -0.126 NA
BRANCH  15  16
ATOM     16  O   UNL d   1      38.044  -9.264  -0.840  0.00  0.00    -0.261 OA
ATOM     17  C   UNL d   1      37.633 -10.137  -1.908  0.00  0.00     0.240 C 
ENDBRANCH  15  16
BRANCH  14  18
ATOM     18  C   UNL d   1      41.203  -7.663  -1.580  0.00  0.00     0.102 A 
ATOM     19  N   UNL d   1      41.849  -6.809  -0.695  0.00  0.00    -0.222 NA
ATOM     20  C   UNL d   1      43.146  -6.900  -0.840  0.00  0.00     0.164 A 
ATOM     21  S   UNL d   1      43.681  -7.932  -2.101  0.00  0.00    -0.062 SA
ATOM     22  C   UNL d   1      42.054  -8.325  -2.453  0.00  0.00     0.087 A 
BRANCH  20  23
ATOM     23  N   UNL d   1      44.014  -6.237  -0.063  0.00  0.00    -0.378 N 
ATOM     24  H   UNL d   1      43.961  -6.346   0.941  0.00  0.00     0.158 HD
ATOM     25  H   UNL d   1      44.945  -6.105  -0.441  0.00  0.00     0.158 HD
ENDBRANCH  20  23
ENDBRANCH  14  18
ENDBRANCH  11  14
ENDBRANCH   5  10
BRANCH   7  26
ATOM     26  C   UNL d   1      40.383  -8.679  -8.282  0.00  0.00     0.194 C 
ATOM     27  OXT UNL d   1      40.531  -9.875  -8.501  0.00  0.00    -0.645 OA
BRANCH  26  28
ATOM     28  O   UNL d   1      41.384  -7.807  -8.479  0.00  0.00    -0.772 OA
ATOM     29  H   UNL d   1      42.245  -8.055  -8.080  0.00  0.00     0.167 HD
ENDBRANCH  26  28
ENDBRANCH   7  26
BRANCH   8  30
ATOM     30  C   UNL d   1      38.009  -7.816  -9.884  0.00  0.00     0.216 C 
BRANCH  30  31
ATOM     31  O   UNL d   1      38.413  -6.544 -10.415  0.00  0.00    -0.317 OA
BRANCH  31  32
ATOM     32  C   UNL d   1      39.394  -6.568 -11.355  0.00  0.00     0.255 C 
ATOM     33  O   UNL d   1      40.038  -5.602 -11.736  0.00  0.00    -0.266 OA
ATOM     34  C   UNL d   1      39.591  -7.966 -11.854  0.00  0.00     0.126 C 
ENDBRANCH  31  32
ENDBRANCH  30  31
ENDBRANCH   8  30
TORSDOF 10
ENDMDL
MODEL 9
REMARK VINA RESULT:      -6.5      3.374      8.098
REMARK  10 active torsions:
REMARK  status: ('A' for Active; 'I' for Inactive)
REMARK    1  A    between atoms: O_4  and  C_21 
REMARK    2  A    between atoms: O_4  and  C_26 
REMARK    3  A    between atoms: O_5  and  C_22 
REMARK    4  A    between atoms: O_8  and  N_12 
REMARK    5  A    between atoms: CA_16  and  N_11 
REMARK       I    between atoms: N_11  and  C_23 
REMARK    6  A    between atoms: N_14  and  C_29 
REMARK    7  A    between atoms: CA_18  and  C_22 
REMARK    8  A    between atoms: C_19  and  C_21 
REMARK    9  A    between atoms: C_23  and  C_24 
REMARK   10  A    between atoms: C_24  and  C_25 
ROOT
ATOM      1  S   UNL d   1      38.239  -7.202  -8.628  0.00  0.00    -0.136 SA
ATOM      2  O   UNL d   1      40.660  -6.385  -5.366  0.00  0.00    -0.271 OA
ATOM      3  N   UNL d   1      40.049  -8.051  -6.872  0.00  0.00    -0.293 N 
ATOM      4  C   UNL d   1      38.625  -8.210  -7.163  0.00  0.00     0.187 C 
ATOM      5  CA  UNL d   1      38.381  -7.571  -5.747  0.00  0.00     0.211 C 
ATOM      6  C   UNL d   1      39.867  -7.119  -5.894  0.00  0.00     0.251 C 
ATOM      7  CA  UNL d   1      41.051  -8.190  -7.808  0.00  0.00     0.117 C 
ATOM      8  C   UNL d   1      40.770  -8.250  -9.143  0.00  0.00    -0.013 C 
ATOM      9  C   UNL d   1      39.371  -8.135  -9.710  0.00  0.00     0.115 C 
ENDROOT
BRANCH   5  10
ATOM     10  N   UNL d   1      37.205  -6.643  -5.591  0.00  0.00    -0.339 N 
ATOM     11  C   UNL d   1      36.510  -6.732  -4.387  0.00  0.00     0.275 C 
ATOM     12  O   UNL d   1      35.527  -6.016  -4.188  0.00  0.00    -0.266 OA
ATOM     13  H   UNL d   1      37.025  -5.857  -6.206  0.00  0.00     0.163 HD
BRANCH  11  14
ATOM     14  C   UNL d   1      36.938  -7.685  -3.266  0.00  0.00     0.180 C 
ATOM     15  N   UNL d   1      36.732  -8.963  -3.148  0.00  0.00    -0.126 NA
BRANCH  15  16
ATOM     16  O   UNL d   1      36.032  -9.596  -4.175  0.00  0.00    -0.261 OA
ATOM     17  C   UNL d   1      34.655  -9.637  -3.758  0.00  0.00     0.240 C 
ENDBRANCH  15  16
BRANCH  14  18
ATOM     18  C   UNL d   1      37.570  -7.075  -2.085  0.00  0.00     0.102 A 
ATOM     19  N   UNL d   1      36.851  -6.806  -0.927  0.00  0.00    -0.222 NA
ATOM     20  C   UNL d   1      37.656  -6.409   0.026  0.00  0.00     0.164 A 
ATOM     21  S   UNL d   1      39.302  -6.235  -0.419  0.00  0.00    -0.062 SA
ATOM     22  C   UNL d   1      38.921  -6.777  -1.996  0.00  0.00     0.087 A 
BRANCH  20  23
ATOM     23  N   UNL d   1      37.236  -6.150   1.271  0.00  0.00    -0.378 N 
ATOM     24  H   UNL d   1      36.258  -5.946   1.431  0.00  0.00     0.158 HD
ATOM     25  H   UNL d   1      37.707  -6.650   2.016  0.00  0.00     0.158 HD
ENDBRANCH  20  23
ENDBRANCH  14  18
ENDBRANCH  11  14
ENDBRANCH   5  10
BRANCH   7  26
ATOM     26  C   UNL d   1      42.468  -8.416  -7.305  0.00  0.00     0.194 C 
ATOM     27  OXT UNL d   1      42.882  -9.506  -6.932  0.00  0.00    -0.645 OA
BRANCH  26  28
ATOM     28  O   UNL d   1      43.202  -7.302  -7.149  0.00  0.00    -0.772 OA
ATOM     29  H   UNL d   1      43.712  -7.018  -7.938  0.00  0.00     0.167 HD
ENDBRANCH  26  28
ENDBRANCH   7  26
BRANCH   8  30
ATOM     30  C   UNL d   1      41.833  -8.365 -10.227  0.00  0.00     0.216 C 
BRANCH  30  31
ATOM     31  O   UNL d   1      41.869  -9.703 -10.749  0.00  0.00    -0.317 OA
BRANCH  31  32
ATOM     32  C   UNL d   1      42.914 -10.476 -10.353  0.00  0.00     0.255 C 
ATOM     33  O   UNL d   1      42.838 -11.633  -9.971  0.00  0.00    -0.266 OA
ATOM     34  C   UNL d   1      44.193  -9.705 -10.469  0.00  0.00     0.126 C 
ENDBRANCH  31  32
ENDBRANCH  30  31
ENDBRANCH   8  30
TORSDOF 10
ENDMDL
