MODEL 1
REMARK VINA RESULT:      -7.5      0.000      0.000
REMARK  10 active torsions:
REMARK  status: ('A' for Active; 'I' for Inactive)
REMARK    1  A    between atoms: O_4  and  C_21 
REMARK    2  A    between atoms: O_4  and  C_26 
REMARK    3  A    between atoms: O_5  and  C_22 
REMARK    4  A    between atoms: O_8  and  N_12 
REMARK    5  A    between atoms: CA_16  and  N_11 
REMARK       I    between atoms: N_11  and  C_23 
REMARK    6  A    between atoms: N_14  and  C_29 
REMARK    7  A    between atoms: CA_18  and  C_22 
REMARK    8  A    between atoms: C_19  and  C_21 
REMARK    9  A    between atoms: C_23  and  C_24 
REMARK   10  A    between atoms: C_24  and  C_25 
ROOT
ATOM      1  S   UNL d   1      38.533  -9.627  -1.942  0.00  0.00    -0.136 SA
ATOM      2  O   UNL d   1      41.922  -7.394  -2.774  0.00  0.00    -0.271 OA
ATOM      3  N   UNL d   1      39.694  -7.240  -2.119  0.00  0.00    -0.293 N 
ATOM      4  C   UNL d   1      38.719  -8.056  -2.840  0.00  0.00     0.187 C 
ATOM      5  CA  UNL d   1      39.738  -8.011  -4.036  0.00  0.00     0.211 C 
ATOM      6  C   UNL d   1      40.742  -7.559  -2.931  0.00  0.00     0.251 C 
ATOM      7  CA  UNL d   1      39.649  -6.996  -0.762  0.00  0.00     0.117 C 
ATOM      8  C   UNL d   1      38.817  -7.705   0.057  0.00  0.00    -0.013 C 
ATOM      9  C   UNL d   1      37.916  -8.821  -0.428  0.00  0.00     0.115 C 
ENDROOT
BRANCH   5  10
ATOM     10  N   UNL d   1      39.881  -9.249  -4.882  0.00  0.00    -0.339 N 
ATOM     11  C   UNL d   1      39.111  -9.291  -6.042  0.00  0.00     0.275 C 
ATOM     12  O   UNL d   1      39.160 -10.276  -6.781  0.00  0.00    -0.266 OA
ATOM     13  H   UNL d   1      40.621  -9.931  -4.758  0.00  0.00     0.163 HD
BRANCH  11  14
ATOM     14  C   UNL d   1      38.203  -8.129  -6.462  0.00  0.00     0.180 C 
ATOM     15  N   UNL d   1      38.467  -7.112  -7.225  0.00  0.00    -0.126 NA
BRANCH  15  16
ATOM     16  O   UNL d   1      39.750  -7.036  -7.770  0.00  0.00    -0.261 OA
ATOM     17  C   UNL d   1      39.632  -7.463  -9.139  0.00  0.00     0.240 C 
ENDBRANCH  15  16
BRANCH  14  18
ATOM     18  C   UNL d   1      36.875  -8.067  -5.830  0.00  0.00     0.102 A 
ATOM     19  N   UNL d   1      36.383  -9.111  -5.057  0.00  0.00    -0.222 NA
ATOM     20  C   UNL d   1      35.259  -8.762  -4.485  0.00  0.00     0.164 A 
ATOM     21  S   UNL d   1      34.663  -7.210  -4.905  0.00  0.00    -0.062 SA
ATOM     22  C   UNL d   1      36.038  -6.964  -5.893  0.00  0.00     0.087 A 
BRANCH  20  23
ATOM     23  N   UNL d   1      34.603  -9.554  -3.626  0.00  0.00    -0.378 N 
ATOM     24  H   UNL d   1      34.968  -9.678  -2.691  0.00  0.00     0.158 HD
ATOM     25  H   UNL d   1      33.593  -9.566  -3.707  0.00  0.00     0.158 HD
ENDBRANCH  20  23
ENDBRANCH  14  18
ENDBRANCH  11  14
ENDBRANCH   5  10
BRANCH   7  26
ATOM     26  C   UNL d   1      40.449  -5.821  -0.223  0.00  0.00     0.194 C 
ATOM     27  OXT UNL d   1      39.940  -4.759   0.111  0.00  0.00    -0.645 OA
BRANCH  26  28
ATOM     28  O   UNL d   1      41.783  -5.967  -0.280  0.00  0.00    -0.772 OA
ATOM     29  H   UNL d   1      42.261  -5.291  -0.808  0.00  0.00     0.167 HD
ENDBRANCH  26  28
ENDBRANCH   7  26
BRANCH   8  30
ATOM     30  C   UNL d   1      38.747  -7.510   1.565  0.00  0.00     0.216 C 
BRANCH  30  31
ATOM     31  O   UNL d   1      37.419  -7.138   1.959  0.00  0.00    -0.317 OA
BRANCH  31  32
ATOM     32  C   UNL d   1      36.983  -7.629   3.149  0.00  0.00     0.255 C 
ATOM     33  O   UNL d   1      36.355  -7.002   3.989  0.00  0.00    -0.266 OA
ATOM     34  C   UNL d   1      37.368  -9.071   3.281  0.00  0.00     0.126 C 
ENDBRANCH  31  32
ENDBRANCH  30  31
ENDBRANCH   8  30
TORSDOF 10
ENDMDL
MODEL 2
REMARK VINA RESULT:      -7.3      2.042      2.571
REMARK  10 active torsions:
REMARK  status: ('A' for Active; 'I' for Inactive)
REMARK    1  A    between atoms: O_4  and  C_21 
REMARK    2  A    between atoms: O_4  and  C_26 
REMARK    3  A    between atoms: O_5  and  C_22 
REMARK    4  A    between atoms: O_8  and  N_12 
REMARK    5  A    between atoms: CA_16  and  N_11 
REMARK       I    between atoms: N_11  and  C_23 
REMARK    6  A    between atoms: N_14  and  C_29 
REMARK    7  A    between atoms: CA_18  and  C_22 
REMARK    8  A    between atoms: C_19  and  C_21 
REMARK    9  A    between atoms: C_23  and  C_24 
REMARK   10  A    between atoms: C_24  and  C_25 
ROOT
ATOM      1  S   UNL d   1      37.525  -8.485  -3.082  0.00  0.00    -0.136 SA
ATOM      2  O   UNL d   1      41.599  -8.789  -2.390  0.00  0.00    -0.271 OA
ATOM      3  N   UNL d   1      39.852  -7.271  -2.638  0.00  0.00    -0.293 N 
ATOM      4  C   UNL d   1      38.909  -7.498  -3.732  0.00  0.00     0.187 C 
ATOM      5  CA  UNL d   1      40.088  -8.264  -4.436  0.00  0.00     0.211 C 
ATOM      6  C   UNL d   1      40.700  -8.275  -3.001  0.00  0.00     0.251 C 
ATOM      7  CA  UNL d   1      39.494  -6.803  -1.392  0.00  0.00     0.117 C 
ATOM      8  C   UNL d   1      38.184  -6.744  -1.006  0.00  0.00    -0.013 C 
ATOM      9  C   UNL d   1      37.035  -7.210  -1.874  0.00  0.00     0.115 C 
ENDROOT
BRANCH   5  10
ATOM     10  N   UNL d   1      39.745  -9.491  -5.240  0.00  0.00    -0.339 N 
ATOM     11  C   UNL d   1      39.704  -9.325  -6.623  0.00  0.00     0.275 C 
ATOM     12  O   UNL d   1      39.417 -10.277  -7.350  0.00  0.00    -0.266 OA
ATOM     13  H   UNL d   1      39.740 -10.430  -4.858  0.00  0.00     0.163 HD
BRANCH  11  14
ATOM     14  C   UNL d   1      40.029  -7.986  -7.295  0.00  0.00     0.180 C 
ATOM     15  N   UNL d   1      41.167  -7.365  -7.385  0.00  0.00    -0.126 NA
BRANCH  15  16
ATOM     16  O   UNL d   1      42.279  -7.979  -6.808  0.00  0.00    -0.261 OA
ATOM     17  C   UNL d   1      43.274  -8.066  -7.845  0.00  0.00     0.240 C 
ENDBRANCH  15  16
BRANCH  14  18
ATOM     18  C   UNL d   1      38.890  -7.214  -7.816  0.00  0.00     0.102 A 
ATOM     19  N   UNL d   1      37.970  -6.606  -6.971  0.00  0.00    -0.222 NA
ATOM     20  C   UNL d   1      37.144  -5.859  -7.660  0.00  0.00     0.164 A 
ATOM     21  S   UNL d   1      37.344  -5.908  -9.362  0.00  0.00    -0.062 SA
ATOM     22  C   UNL d   1      38.668  -6.974  -9.164  0.00  0.00     0.087 A 
BRANCH  20  23
ATOM     23  N   UNL d   1      36.199  -5.102  -7.088  0.00  0.00    -0.378 N 
ATOM     24  H   UNL d   1      35.289  -5.503  -6.904  0.00  0.00     0.158 HD
ATOM     25  H   UNL d   1      36.520  -4.416  -6.414  0.00  0.00     0.158 HD
ENDBRANCH  20  23
ENDBRANCH  14  18
ENDBRANCH  11  14
ENDBRANCH   5  10
BRANCH   7  26
ATOM     26  C   UNL d   1      40.587  -6.222  -0.509  0.00  0.00     0.194 C 
ATOM     27  OXT UNL d   1      40.809  -5.022  -0.418  0.00  0.00    -0.645 OA
BRANCH  26  28
ATOM     28  O   UNL d   1      41.405  -7.127   0.054  0.00  0.00    -0.772 OA
ATOM     29  H   UNL d   1      42.025  -6.776   0.728  0.00  0.00     0.167 HD
ENDBRANCH  26  28
ENDBRANCH   7  26
BRANCH   8  30
ATOM     30  C   UNL d   1      37.728  -6.273   0.366  0.00  0.00     0.216 C 
BRANCH  30  31
ATOM     31  O   UNL d   1      37.274  -7.386   1.150  0.00  0.00    -0.317 OA
BRANCH  31  32
ATOM     32  C   UNL d   1      38.084  -7.777   2.168  0.00  0.00     0.255 C 
ATOM     33  O   UNL d   1      39.255  -7.459   2.307  0.00  0.00    -0.266 OA
ATOM     34  C   UNL d   1      37.325  -8.650   3.121  0.00  0.00     0.126 C 
ENDBRANCH  31  32
ENDBRANCH  30  31
ENDBRANCH   8  30
TORSDOF 10
ENDMDL
MODEL 3
REMARK VINA RESULT:      -7.2      2.826      8.294
REMARK  10 active torsions:
REMARK  status: ('A' for Active; 'I' for Inactive)
REMARK    1  A    between atoms: O_4  and  C_21 
REMARK    2  A    between atoms: O_4  and  C_26 
REMARK    3  A    between atoms: O_5  and  C_22 
REMARK    4  A    between atoms: O_8  and  N_12 
REMARK    5  A    between atoms: CA_16  and  N_11 
REMARK       I    between atoms: N_11  and  C_23 
REMARK    6  A    between atoms: N_14  and  C_29 
REMARK    7  A    between atoms: CA_18  and  C_22 
REMARK    8  A    between atoms: C_19  and  C_21 
REMARK    9  A    between atoms: C_23  and  C_24 
REMARK   10  A    between atoms: C_24  and  C_25 
ROOT
ATOM      1  S   UNL d   1      39.242  -9.334  -5.344  0.00  0.00    -0.136 SA
ATOM      2  O   UNL d   1      35.504  -7.804  -4.422  0.00  0.00    -0.271 OA
ATOM      3  N   UNL d   1      37.583  -7.254  -5.313  0.00  0.00    -0.293 N 
ATOM      4  C   UNL d   1      38.769  -7.738  -4.609  0.00  0.00     0.187 C 
ATOM      5  CA  UNL d   1      37.859  -7.761  -3.328  0.00  0.00     0.211 C 
ATOM      6  C   UNL d   1      36.700  -7.687  -4.369  0.00  0.00     0.251 C 
ATOM      7  CA  UNL d   1      37.470  -7.185  -6.686  0.00  0.00     0.117 C 
ATOM      8  C   UNL d   1      38.380  -7.795  -7.502  0.00  0.00    -0.013 C 
ATOM      9  C   UNL d   1      39.545  -8.615  -6.992  0.00  0.00     0.115 C 
ENDROOT
BRANCH   5  10
ATOM     10  N   UNL d   1      38.066  -8.881  -2.342  0.00  0.00    -0.339 N 
ATOM     11  C   UNL d   1      38.991  -8.641  -1.327  0.00  0.00     0.275 C 
ATOM     12  O   UNL d   1      39.228  -9.512  -0.489  0.00  0.00    -0.266 OA
ATOM     13  H   UNL d   1      37.451  -9.684  -2.266  0.00  0.00     0.163 HD
BRANCH  11  14
ATOM     14  C   UNL d   1      39.725  -7.302  -1.192  0.00  0.00     0.180 C 
ATOM     15  N   UNL d   1      39.238  -6.109  -1.024  0.00  0.00    -0.126 NA
BRANCH  15  16
ATOM     16  O   UNL d   1      37.850  -5.990  -0.938  0.00  0.00    -0.261 OA
ATOM     17  C   UNL d   1      37.526  -6.064   0.463  0.00  0.00     0.240 C 
ENDBRANCH  15  16
BRANCH  14  18
ATOM     18  C   UNL d   1      41.182  -7.323  -1.399  0.00  0.00     0.102 A 
ATOM     19  N   UNL d   1      42.046  -6.595  -0.591  0.00  0.00    -0.222 NA
ATOM     20  C   UNL d   1      43.290  -6.893  -0.872  0.00  0.00     0.164 A 
ATOM     21  S   UNL d   1      43.516  -7.982  -2.176  0.00  0.00    -0.062 SA
ATOM     22  C   UNL d   1      41.818  -8.103  -2.353  0.00  0.00     0.087 A 
BRANCH  20  23
ATOM     23  N   UNL d   1      44.329  -6.387  -0.194  0.00  0.00    -0.378 N 
ATOM     24  H   UNL d   1      44.383  -5.389  -0.043  0.00  0.00     0.158 HD
ATOM     25  H   UNL d   1      44.701  -6.964   0.552  0.00  0.00     0.158 HD
ENDBRANCH  20  23
ENDBRANCH  14  18
ENDBRANCH  11  14
ENDBRANCH   5  10
BRANCH   7  26
ATOM     26  C   UNL d   1      36.385  -6.292  -7.266  0.00  0.00     0.194 C 
ATOM     27  OXT UNL d   1      36.507  -5.081  -7.390  0.00  0.00    -0.645 OA
BRANCH  26  28
ATOM     28  O   UNL d   1      35.210  -6.901  -7.497  0.00  0.00    -0.772 OA
ATOM     29  H   UNL d   1      35.158  -7.841  -7.219  0.00  0.00     0.167 HD
ENDBRANCH  26  28
ENDBRANCH   7  26
BRANCH   8  30
ATOM     30  C   UNL d   1      38.290  -7.787  -9.021  0.00  0.00     0.216 C 
BRANCH  30  31
ATOM     31  O   UNL d   1      38.940  -6.623  -9.553  0.00  0.00    -0.317 OA
BRANCH  31  32
ATOM     32  C   UNL d   1      38.218  -5.876 -10.428  0.00  0.00     0.255 C 
ATOM     33  O   UNL d   1      38.506  -4.751 -10.809  0.00  0.00    -0.266 OA
ATOM     34  C   UNL d   1      37.012  -6.641 -10.883  0.00  0.00     0.126 C 
ENDBRANCH  31  32
ENDBRANCH  30  31
ENDBRANCH   8  30
TORSDOF 10
ENDMDL
MODEL 4
REMARK VINA RESULT:      -7.1      2.800      8.371
REMARK  10 active torsions:
REMARK  status: ('A' for Active; 'I' for Inactive)
REMARK    1  A    between atoms: O_4  and  C_21 
REMARK    2  A    between atoms: O_4  and  C_26 
REMARK    3  A    between atoms: O_5  and  C_22 
REMARK    4  A    between atoms: O_8  and  N_12 
REMARK    5  A    between atoms: CA_16  and  N_11 
REMARK       I    between atoms: N_11  and  C_23 
REMARK    6  A    between atoms: N_14  and  C_29 
REMARK    7  A    between atoms: CA_18  and  C_22 
REMARK    8  A    between atoms: C_19  and  C_21 
REMARK    9  A    between atoms: C_23  and  C_24 
REMARK   10  A    between atoms: C_24  and  C_25 
ROOT
ATOM      1  S   UNL d   1      36.070  -6.185  -5.365  0.00  0.00    -0.136 SA
ATOM      2  O   UNL d   1      40.195  -6.518  -5.566  0.00  0.00    -0.271 OA
ATOM      3  N   UNL d   1      38.204  -7.665  -5.944  0.00  0.00    -0.293 N 
ATOM      4  C   UNL d   1      37.165  -7.569  -4.921  0.00  0.00     0.187 C 
ATOM      5  CA  UNL d   1      38.340  -7.281  -3.917  0.00  0.00     0.211 C 
ATOM      6  C   UNL d   1      39.145  -6.993  -5.221  0.00  0.00     0.251 C 
ATOM      7  CA  UNL d   1      37.958  -7.686  -7.300  0.00  0.00     0.117 C 
ATOM      8  C   UNL d   1      36.726  -7.373  -7.801  0.00  0.00    -0.013 C 
ATOM      9  C   UNL d   1      35.556  -6.948  -6.940  0.00  0.00     0.115 C 
ENDROOT
BRANCH   5  10
ATOM     10  N   UNL d   1      38.090  -6.285  -2.815  0.00  0.00    -0.339 N 
ATOM     11  C   UNL d   1      38.670  -6.576  -1.582  0.00  0.00     0.275 C 
ATOM     12  O   UNL d   1      38.503  -5.818  -0.626  0.00  0.00    -0.266 OA
ATOM     13  H   UNL d   1      37.708  -5.358  -2.971  0.00  0.00     0.163 HD
BRANCH  11  14
ATOM     14  C   UNL d   1      39.548  -7.815  -1.365  0.00  0.00     0.180 C 
ATOM     15  N   UNL d   1      39.209  -9.004  -0.967  0.00  0.00    -0.126 NA
BRANCH  15  16
ATOM     16  O   UNL d   1      37.859  -9.229  -0.696  0.00  0.00    -0.261 OA
ATOM     17  C   UNL d   1      37.345  -9.980  -1.812  0.00  0.00     0.240 C 
ENDBRANCH  15  16
BRANCH  14  18
ATOM     18  C   UNL d   1      41.001  -7.628  -1.506  0.00  0.00     0.102 A 
ATOM     19  N   UNL d   1      41.721  -6.815  -0.641  0.00  0.00    -0.222 NA
ATOM     20  C   UNL d   1      43.004  -6.928  -0.873  0.00  0.00     0.164 A 
ATOM     21  S   UNL d   1      43.433  -7.930  -2.196  0.00  0.00    -0.062 SA
ATOM     22  C   UNL d   1      41.778  -8.279  -2.452  0.00  0.00     0.087 A 
BRANCH  20  23
ATOM     23  N   UNL d   1      43.935  -6.307  -0.135  0.00  0.00    -0.378 N 
ATOM     24  H   UNL d   1      43.644  -5.721   0.636  0.00  0.00     0.158 HD
ATOM     25  H   UNL d   1      44.808  -6.804  -0.003  0.00  0.00     0.158 HD
ENDBRANCH  20  23
ENDBRANCH  14  18
ENDBRANCH  11  14
ENDBRANCH   5  10
BRANCH   7  26
ATOM     26  C   UNL d   1      39.056  -8.203  -8.215  0.00  0.00     0.194 C 
ATOM     27  OXT UNL d   1      39.216  -9.390  -8.468  0.00  0.00    -0.645 OA
BRANCH  26  28
ATOM     28  O   UNL d   1      39.947  -7.280  -8.613  0.00  0.00    -0.772 OA
ATOM     29  H   UNL d   1      39.570  -6.412  -8.873  0.00  0.00     0.167 HD
ENDBRANCH  26  28
ENDBRANCH   7  26
BRANCH   8  30
ATOM     30  C   UNL d   1      36.400  -7.341  -9.287  0.00  0.00     0.216 C 
BRANCH  30  31
ATOM     31  O   UNL d   1      36.502  -6.002  -9.792  0.00  0.00    -0.317 OA
BRANCH  31  32
ATOM     32  C   UNL d   1      37.507  -5.765 -10.676  0.00  0.00     0.255 C 
ATOM     33  O   UNL d   1      38.623  -5.357 -10.391  0.00  0.00    -0.266 OA
ATOM     34  C   UNL d   1      37.056  -6.096 -12.066  0.00  0.00     0.126 C 
ENDBRANCH  31  32
ENDBRANCH  30  31
ENDBRANCH   8  30
TORSDOF 10
ENDMDL
MODEL 5
REMARK VINA RESULT:      -6.9      3.111      8.089
REMARK  10 active torsions:
REMARK  status: ('A' for Active; 'I' for Inactive)
REMARK    1  A    between atoms: O_4  and  C_21 
REMARK    2  A    between atoms: O_4  and  C_26 
REMARK    3  A    between atoms: O_5  and  C_22 
REMARK    4  A    between atoms: O_8  and  N_12 
REMARK    5  A    between atoms: CA_16  and  N_11 
REMARK       I    between atoms: N_11  and  C_23 
REMARK    6  A    between atoms: N_14  and  C_29 
REMARK    7  A    between atoms: CA_18  and  C_22 
REMARK    8  A    between atoms: C_19  and  C_21 
REMARK    9  A    between atoms: C_23  and  C_24 
REMARK   10  A    between atoms: C_24  and  C_25 
ROOT
ATOM      1  S   UNL d   1      39.951  -8.865  -6.826  0.00  0.00    -0.136 SA
ATOM      2  O   UNL d   1      36.205  -8.504  -5.094  0.00  0.00    -0.271 OA
ATOM      3  N   UNL d   1      37.970  -7.291  -6.003  0.00  0.00    -0.293 N 
ATOM      4  C   UNL d   1      39.326  -7.668  -5.606  0.00  0.00     0.187 C 
ATOM      5  CA  UNL d   1      38.662  -8.233  -4.298  0.00  0.00     0.211 C 
ATOM      6  C   UNL d   1      37.351  -8.143  -5.139  0.00  0.00     0.251 C 
ATOM      7  CA  UNL d   1      37.619  -6.885  -7.274  0.00  0.00     0.117 C 
ATOM      8  C   UNL d   1      38.475  -7.039  -8.328  0.00  0.00    -0.013 C 
ATOM      9  C   UNL d   1      39.838  -7.685  -8.212  0.00  0.00     0.115 C 
ENDROOT
BRANCH   5  10
ATOM     10  N   UNL d   1      39.232  -9.500  -3.715  0.00  0.00    -0.339 N 
ATOM     11  C   UNL d   1      40.028  -9.349  -2.581  0.00  0.00     0.275 C 
ATOM     12  O   UNL d   1      40.542 -10.335  -2.052  0.00  0.00    -0.266 OA
ATOM     13  H   UNL d   1      38.918 -10.429  -3.974  0.00  0.00     0.163 HD
BRANCH  11  14
ATOM     14  C   UNL d   1      40.278  -7.981  -1.936  0.00  0.00     0.180 C 
ATOM     15  N   UNL d   1      41.280  -7.169  -2.089  0.00  0.00    -0.126 NA
BRANCH  15  16
ATOM     16  O   UNL d   1      42.291  -7.558  -2.968  0.00  0.00    -0.261 OA
ATOM     17  C   UNL d   1      43.370  -8.046  -2.149  0.00  0.00     0.240 C 
ENDBRANCH  15  16
BRANCH  14  18
ATOM     18  C   UNL d   1      39.322  -7.554  -0.901  0.00  0.00     0.102 A 
ATOM     19  N   UNL d   1      39.315  -8.122   0.367  0.00  0.00    -0.222 NA
ATOM     20  C   UNL d   1      38.485  -7.479   1.148  0.00  0.00     0.164 A 
ATOM     21  S   UNL d   1      37.588  -6.221   0.404  0.00  0.00    -0.062 SA
ATOM     22  C   UNL d   1      38.405  -6.528  -1.069  0.00  0.00     0.087 A 
BRANCH  20  23
ATOM     23  N   UNL d   1      38.334  -7.771   2.447  0.00  0.00    -0.378 N 
ATOM     24  H   UNL d   1      38.900  -8.501   2.859  0.00  0.00     0.158 HD
ATOM     25  H   UNL d   1      38.107  -6.995   3.058  0.00  0.00     0.158 HD
ENDBRANCH  20  23
ENDBRANCH  14  18
ENDBRANCH  11  14
ENDBRANCH   5  10
BRANCH   7  26
ATOM     26  C   UNL d   1      36.308  -6.134  -7.444  0.00  0.00     0.194 C 
ATOM     27  OXT UNL d   1      36.207  -4.922  -7.312  0.00  0.00    -0.645 OA
BRANCH  26  28
ATOM     28  O   UNL d   1      35.224  -6.911  -7.599  0.00  0.00    -0.772 OA
ATOM     29  H   UNL d   1      35.055  -7.552  -6.876  0.00  0.00     0.167 HD
ENDBRANCH  26  28
ENDBRANCH   7  26
BRANCH   8  30
ATOM     30  C   UNL d   1      38.133  -6.647  -9.758  0.00  0.00     0.216 C 
BRANCH  30  31
ATOM     31  O   UNL d   1      38.479  -5.274  -9.995  0.00  0.00    -0.317 OA
BRANCH  31  32
ATOM     32  C   UNL d   1      38.646  -4.910 -11.293  0.00  0.00     0.255 C 
ATOM     33  O   UNL d   1      39.273  -3.936 -11.682  0.00  0.00    -0.266 OA
ATOM     34  C   UNL d   1      37.962  -5.893 -12.194  0.00  0.00     0.126 C 
ENDBRANCH  31  32
ENDBRANCH  30  31
ENDBRANCH   8  30
TORSDOF 10
ENDMDL
MODEL 6
REMARK VINA RESULT:      -6.5      3.385      8.147
REMARK  10 active torsions:
REMARK  status: ('A' for Active; 'I' for Inactive)
REMARK    1  A    between atoms: O_4  and  C_21 
REMARK    2  A    between atoms: O_4  and  C_26 
REMARK    3  A    between atoms: O_5  and  C_22 
REMARK    4  A    between atoms: O_8  and  N_12 
REMARK    5  A    between atoms: CA_16  and  N_11 
REMARK       I    between atoms: N_11  and  C_23 
REMARK    6  A    between atoms: N_14  and  C_29 
REMARK    7  A    between atoms: CA_18  and  C_22 
REMARK    8  A    between atoms: C_19  and  C_21 
REMARK    9  A    between atoms: C_23  and  C_24 
REMARK   10  A    between atoms: C_24  and  C_25 
ROOT
ATOM      1  S   UNL d   1      38.413  -7.163  -8.600  0.00  0.00    -0.136 SA
ATOM      2  O   UNL d   1      40.734  -6.432  -5.247  0.00  0.00    -0.271 OA
ATOM      3  N   UNL d   1      40.151  -8.066  -6.799  0.00  0.00    -0.293 N 
ATOM      4  C   UNL d   1      38.736  -8.200  -7.140  0.00  0.00     0.187 C 
ATOM      5  CA  UNL d   1      38.454  -7.580  -5.723  0.00  0.00     0.211 C 
ATOM      6  C   UNL d   1      39.949  -7.146  -5.813  0.00  0.00     0.251 C 
ATOM      7  CA  UNL d   1      41.183  -8.204  -7.703  0.00  0.00     0.117 C 
ATOM      8  C   UNL d   1      40.946  -8.238  -9.048  0.00  0.00    -0.013 C 
ATOM      9  C   UNL d   1      39.569  -8.095  -9.659  0.00  0.00     0.115 C 
ENDROOT
BRANCH   5  10
ATOM     10  N   UNL d   1      37.285  -6.638  -5.592  0.00  0.00    -0.339 N 
ATOM     11  C   UNL d   1      36.569  -6.713  -4.399  0.00  0.00     0.275 C 
ATOM     12  O   UNL d   1      35.591  -5.986  -4.220  0.00  0.00    -0.266 OA
ATOM     13  H   UNL d   1      37.124  -5.853  -6.213  0.00  0.00     0.163 HD
BRANCH  11  14
ATOM     14  C   UNL d   1      36.967  -7.667  -3.266  0.00  0.00     0.180 C 
ATOM     15  N   UNL d   1      36.748  -8.942  -3.148  0.00  0.00    -0.126 NA
BRANCH  15  16
ATOM     16  O   UNL d   1      36.063  -9.573  -4.187  0.00  0.00    -0.261 OA
ATOM     17  C   UNL d   1      34.676  -9.593  -3.801  0.00  0.00     0.240 C 
ENDBRANCH  15  16
BRANCH  14  18
ATOM     18  C   UNL d   1      37.581  -7.057  -2.076  0.00  0.00     0.102 A 
ATOM     19  N   UNL d   1      36.849  -6.810  -0.921  0.00  0.00    -0.222 NA
ATOM     20  C   UNL d   1      37.641  -6.409   0.041  0.00  0.00     0.164 A 
ATOM     21  S   UNL d   1      39.288  -6.205  -0.389  0.00  0.00    -0.062 SA
ATOM     22  C   UNL d   1      38.926  -6.739  -1.974  0.00  0.00     0.087 A 
BRANCH  20  23
ATOM     23  N   UNL d   1      37.208  -6.168   1.286  0.00  0.00    -0.378 N 
ATOM     24  H   UNL d   1      37.623  -5.413   1.816  0.00  0.00     0.158 HD
ATOM     25  H   UNL d   1      36.224  -6.336   1.460  0.00  0.00     0.158 HD
ENDBRANCH  20  23
ENDBRANCH  14  18
ENDBRANCH  11  14
ENDBRANCH   5  10
BRANCH   7  26
ATOM     26  C   UNL d   1      42.579  -8.457  -7.156  0.00  0.00     0.194 C 
ATOM     27  OXT UNL d   1      43.444  -7.593  -7.100  0.00  0.00    -0.645 OA
BRANCH  26  28
ATOM     28  O   UNL d   1      42.857  -9.741  -6.878  0.00  0.00    -0.772 OA
ATOM     29  H   UNL d   1      43.640  -9.890  -6.307  0.00  0.00     0.167 HD
ENDBRANCH  26  28
ENDBRANCH   7  26
BRANCH   8  30
ATOM     30  C   UNL d   1      42.043  -8.351 -10.097  0.00  0.00     0.216 C 
BRANCH  30  31
ATOM     31  O   UNL d   1      42.229  -9.722 -10.479  0.00  0.00    -0.317 OA
BRANCH  31  32
ATOM     32  C   UNL d   1      43.493 -10.210 -10.376  0.00  0.00     0.255 C 
ATOM     33  O   UNL d   1      43.945 -10.816  -9.416  0.00  0.00    -0.266 OA
ATOM     34  C   UNL d   1      44.261  -9.915 -11.629  0.00  0.00     0.126 C 
ENDBRANCH  31  32
ENDBRANCH  30  31
ENDBRANCH   8  30
TORSDOF 10
ENDMDL
MODEL 7
REMARK VINA RESULT:      -6.4      2.762      3.249
REMARK  10 active torsions:
REMARK  status: ('A' for Active; 'I' for Inactive)
REMARK    1  A    between atoms: O_4  and  C_21 
REMARK    2  A    between atoms: O_4  and  C_26 
REMARK    3  A    between atoms: O_5  and  C_22 
REMARK    4  A    between atoms: O_8  and  N_12 
REMARK    5  A    between atoms: CA_16  and  N_11 
REMARK       I    between atoms: N_11  and  C_23 
REMARK    6  A    between atoms: N_14  and  C_29 
REMARK    7  A    between atoms: CA_18  and  C_22 
REMARK    8  A    between atoms: C_19  and  C_21 
REMARK    9  A    between atoms: C_23  and  C_24 
REMARK   10  A    between atoms: C_24  and  C_25 
ROOT
ATOM      1  S   UNL d   1      39.480  -9.897  -2.013  0.00  0.00    -0.136 SA
ATOM      2  O   UNL d   1      43.141  -7.991  -2.379  0.00  0.00    -0.271 OA
ATOM      3  N   UNL d   1      40.843  -7.629  -2.301  0.00  0.00    -0.293 N 
ATOM      4  C   UNL d   1      39.992  -8.520  -3.087  0.00  0.00     0.187 C 
ATOM      5  CA  UNL d   1      41.253  -8.732  -4.001  0.00  0.00     0.211 C 
ATOM      6  C   UNL d   1      42.016  -8.133  -2.780  0.00  0.00     0.251 C 
ATOM      7  CA  UNL d   1      40.515  -7.146  -1.052  0.00  0.00     0.117 C 
ATOM      8  C   UNL d   1      39.464  -7.661  -0.347  0.00  0.00    -0.013 C 
ATOM      9  C   UNL d   1      38.607  -8.807  -0.840  0.00  0.00     0.115 C 
ENDROOT
BRANCH   5  10
ATOM     10  N   UNL d   1      41.480 -10.107  -4.574  0.00  0.00    -0.339 N 
ATOM     11  C   UNL d   1      41.743 -10.166  -5.941  0.00  0.00     0.275 C 
ATOM     12  O   UNL d   1      41.926 -11.254  -6.488  0.00  0.00    -0.266 OA
ATOM     13  H   UNL d   1      41.640 -10.932  -4.007  0.00  0.00     0.163 HD
BRANCH  11  14
ATOM     14  C   UNL d   1      41.842  -8.905  -6.808  0.00  0.00     0.180 C 
ATOM     15  N   UNL d   1      42.821  -8.059  -6.923  0.00  0.00    -0.126 NA
BRANCH  15  16
ATOM     16  O   UNL d   1      43.971  -8.304  -6.172  0.00  0.00    -0.261 OA
ATOM     17  C   UNL d   1      45.066  -8.316  -7.106  0.00  0.00     0.240 C 
ENDBRANCH  15  16
BRANCH  14  18
ATOM     18  C   UNL d   1      40.625  -8.505  -7.533  0.00  0.00     0.102 A 
ATOM     19  N   UNL d   1      40.179  -9.199  -8.651  0.00  0.00    -0.222 NA
ATOM     20  C   UNL d   1      39.007  -8.751  -9.025  0.00  0.00     0.164 A 
ATOM     21  S   UNL d   1      38.404  -7.415  -8.136  0.00  0.00    -0.062 SA
ATOM     22  C   UNL d   1      39.796  -7.465  -7.141  0.00  0.00     0.087 A 
BRANCH  20  23
ATOM     23  N   UNL d   1      38.311  -9.289 -10.036  0.00  0.00    -0.378 N 
ATOM     24  H   UNL d   1      38.783  -9.494 -10.907  0.00  0.00     0.158 HD
ATOM     25  H   UNL d   1      37.569  -9.930  -9.779  0.00  0.00     0.158 HD
ENDBRANCH  20  23
ENDBRANCH  14  18
ENDBRANCH  11  14
ENDBRANCH   5  10
BRANCH   7  26
ATOM     26  C   UNL d   1      41.267  -5.928  -0.540  0.00  0.00     0.194 C 
ATOM     27  OXT UNL d   1      40.789  -4.802  -0.524  0.00  0.00    -0.645 OA
BRANCH  26  28
ATOM     28  O   UNL d   1      42.561  -6.140  -0.246  0.00  0.00    -0.772 OA
ATOM     29  H   UNL d   1      42.980  -6.899  -0.705  0.00  0.00     0.167 HD
ENDBRANCH  26  28
ENDBRANCH   7  26
BRANCH   8  30
ATOM     30  C   UNL d   1      39.075  -7.197   1.049  0.00  0.00     0.216 C 
BRANCH  30  31
ATOM     31  O   UNL d   1      38.883  -8.326   1.914  0.00  0.00    -0.317 OA
BRANCH  31  32
ATOM     32  C   UNL d   1      38.573  -8.049   3.208  0.00  0.00     0.255 C 
ATOM     33  O   UNL d   1      39.324  -7.537   4.024  0.00  0.00    -0.266 OA
ATOM     34  C   UNL d   1      37.156  -8.447   3.493  0.00  0.00     0.126 C 
ENDBRANCH  31  32
ENDBRANCH  30  31
ENDBRANCH   8  30
TORSDOF 10
ENDMDL
MODEL 8
REMARK VINA RESULT:      -6.4      2.510      3.931
REMARK  10 active torsions:
REMARK  status: ('A' for Active; 'I' for Inactive)
REMARK    1  A    between atoms: O_4  and  C_21 
REMARK    2  A    between atoms: O_4  and  C_26 
REMARK    3  A    between atoms: O_5  and  C_22 
REMARK    4  A    between atoms: O_8  and  N_12 
REMARK    5  A    between atoms: CA_16  and  N_11 
REMARK       I    between atoms: N_11  and  C_23 
REMARK    6  A    between atoms: N_14  and  C_29 
REMARK    7  A    between atoms: CA_18  and  C_22 
REMARK    8  A    between atoms: C_19  and  C_21 
REMARK    9  A    between atoms: C_23  and  C_24 
REMARK   10  A    between atoms: C_24  and  C_25 
ROOT
ATOM      1  S   UNL d   1      37.641  -9.281  -2.548  0.00  0.00    -0.136 SA
ATOM      2  O   UNL d   1      41.778  -9.097  -2.659  0.00  0.00    -0.271 OA
ATOM      3  N   UNL d   1      39.851  -7.801  -2.509  0.00  0.00    -0.293 N 
ATOM      4  C   UNL d   1      38.748  -8.123  -3.411  0.00  0.00     0.187 C 
ATOM      5  CA  UNL d   1      39.848  -8.728  -4.356  0.00  0.00     0.211 C 
ATOM      6  C   UNL d   1      40.724  -8.687  -3.066  0.00  0.00     0.251 C 
ATOM      7  CA  UNL d   1      39.690  -7.399  -1.199  0.00  0.00     0.117 C 
ATOM      8  C   UNL d   1      38.483  -7.507  -0.569  0.00  0.00    -0.013 C 
ATOM      9  C   UNL d   1      37.249  -8.095  -1.219  0.00  0.00     0.115 C 
ENDROOT
BRANCH   5  10
ATOM     10  N   UNL d   1      39.501  -9.974  -5.128  0.00  0.00    -0.339 N 
ATOM     11  C   UNL d   1      39.783  -9.949  -6.492  0.00  0.00     0.275 C 
ATOM     12  O   UNL d   1      39.516 -10.924  -7.196  0.00  0.00    -0.266 OA
ATOM     13  H   UNL d   1      39.269 -10.859  -4.691  0.00  0.00     0.163 HD
BRANCH  11  14
ATOM     14  C   UNL d   1      40.447  -8.743  -7.166  0.00  0.00     0.180 C 
ATOM     15  N   UNL d   1      39.903  -7.767  -7.829  0.00  0.00    -0.126 NA
BRANCH  15  16
ATOM     16  O   UNL d   1      38.514  -7.776  -7.958  0.00  0.00    -0.261 OA
ATOM     17  C   UNL d   1      38.026  -6.704  -7.131  0.00  0.00     0.240 C 
ENDBRANCH  15  16
BRANCH  14  18
ATOM     18  C   UNL d   1      41.919  -8.724  -7.185  0.00  0.00     0.102 A 
ATOM     19  N   UNL d   1      42.671  -9.377  -6.217  0.00  0.00    -0.222 NA
ATOM     20  C   UNL d   1      43.942  -9.345  -6.529  0.00  0.00     0.164 A 
ATOM     21  S   UNL d   1      44.336  -8.454  -7.940  0.00  0.00    -0.062 SA
ATOM     22  C   UNL d   1      42.674  -8.123  -8.180  0.00  0.00     0.087 A 
BRANCH  20  23
ATOM     23  N   UNL d   1      44.885  -9.961  -5.805  0.00  0.00    -0.378 N 
ATOM     24  H   UNL d   1      44.725 -10.907  -5.487  0.00  0.00     0.158 HD
ATOM     25  H   UNL d   1      45.846  -9.731  -6.031  0.00  0.00     0.158 HD
ENDBRANCH  20  23
ENDBRANCH  14  18
ENDBRANCH  11  14
ENDBRANCH   5  10
BRANCH   7  26
ATOM     26  C   UNL d   1      40.859  -6.704  -0.519  0.00  0.00     0.194 C 
ATOM     27  OXT UNL d   1      41.000  -5.489  -0.505  0.00  0.00    -0.645 OA
BRANCH  26  28
ATOM     28  O   UNL d   1      41.820  -7.523  -0.062  0.00  0.00    -0.772 OA
ATOM     29  H   UNL d   1      42.741  -7.218  -0.209  0.00  0.00     0.167 HD
ENDBRANCH  26  28
ENDBRANCH   7  26
BRANCH   8  30
ATOM     30  C   UNL d   1      38.250  -7.117   0.883  0.00  0.00     0.216 C 
BRANCH  30  31
ATOM     31  O   UNL d   1      37.973  -8.282   1.674  0.00  0.00    -0.317 OA
BRANCH  31  32
ATOM     32  C   UNL d   1      38.152  -8.157   3.015  0.00  0.00     0.255 C 
ATOM     33  O   UNL d   1      39.188  -7.817   3.565  0.00  0.00    -0.266 OA
ATOM     34  C   UNL d   1      36.877  -8.480   3.735  0.00  0.00     0.126 C 
ENDBRANCH  31  32
ENDBRANCH  30  31
ENDBRANCH   8  30
TORSDOF 10
ENDMDL
MODEL 9
REMARK VINA RESULT:      -6.2      3.435      5.405
REMARK  10 active torsions:
REMARK  status: ('A' for Active; 'I' for Inactive)
REMARK    1  A    between atoms: O_4  and  C_21 
REMARK    2  A    between atoms: O_4  and  C_26 
REMARK    3  A    between atoms: O_5  and  C_22 
REMARK    4  A    between atoms: O_8  and  N_12 
REMARK    5  A    between atoms: CA_16  and  N_11 
REMARK       I    between atoms: N_11  and  C_23 
REMARK    6  A    between atoms: N_14  and  C_29 
REMARK    7  A    between atoms: CA_18  and  C_22 
REMARK    8  A    between atoms: C_19  and  C_21 
REMARK    9  A    between atoms: C_23  and  C_24 
REMARK   10  A    between atoms: C_24  and  C_25 
ROOT
ATOM      1  S   UNL d   1      39.561  -6.938  -5.154  0.00  0.00    -0.136 SA
ATOM      2  O   UNL d   1      35.869  -6.428  -6.963  0.00  0.00    -0.271 OA
ATOM      3  N   UNL d   1      37.118  -7.875  -5.635  0.00  0.00    -0.293 N 
ATOM      4  C   UNL d   1      38.501  -8.131  -6.030  0.00  0.00     0.187 C 
ATOM      5  CA  UNL d   1      38.033  -7.764  -7.485  0.00  0.00     0.211 C 
ATOM      6  C   UNL d   1      36.811  -7.142  -6.742  0.00  0.00     0.251 C 
ATOM      7  CA  UNL d   1      36.694  -7.751  -4.328  0.00  0.00     0.117 C 
ATOM      8  C   UNL d   1      37.589  -7.617  -3.304  0.00  0.00    -0.013 C 
ATOM      9  C   UNL d   1      39.088  -7.556  -3.505  0.00  0.00     0.115 C 
ENDROOT
BRANCH   5  10
ATOM     10  N   UNL d   1      38.995  -7.003  -8.359  0.00  0.00    -0.339 N 
ATOM     11  C   UNL d   1      39.173  -7.496  -9.650  0.00  0.00     0.275 C 
ATOM     12  O   UNL d   1      39.952  -6.937 -10.423  0.00  0.00    -0.266 OA
ATOM     13  H   UNL d   1      39.349  -6.080  -8.133  0.00  0.00     0.163 HD
BRANCH  11  14
ATOM     14  C   UNL d   1      38.404  -8.717 -10.170  0.00  0.00     0.180 C 
ATOM     15  N   UNL d   1      37.225  -8.778 -10.713  0.00  0.00    -0.126 NA
BRANCH  15  16
ATOM     16  O   UNL d   1      36.530  -7.578 -10.872  0.00  0.00    -0.261 OA
ATOM     17  C   UNL d   1      35.258  -7.762 -10.224  0.00  0.00     0.240 C 
ENDBRANCH  15  16
BRANCH  14  18
ATOM     18  C   UNL d   1      39.013 -10.034  -9.925  0.00  0.00     0.102 A 
ATOM     19  N   UNL d   1      40.078 -10.196  -9.048  0.00  0.00    -0.222 NA
ATOM     20  C   UNL d   1      40.342 -11.467  -8.884  0.00  0.00     0.164 A 
ATOM     21  S   UNL d   1      39.410 -12.548  -9.834  0.00  0.00    -0.062 SA
ATOM     22  C   UNL d   1      38.552 -11.217 -10.483  0.00  0.00     0.087 A 
BRANCH  20  23
ATOM     23  N   UNL d   1      41.278 -11.912  -8.034  0.00  0.00    -0.378 N 
ATOM     24  H   UNL d   1      41.655 -11.281  -7.340  0.00  0.00     0.158 HD
ATOM     25  H   UNL d   1      41.200 -12.881  -7.748  0.00  0.00     0.158 HD
ENDBRANCH  20  23
ENDBRANCH  14  18
ENDBRANCH  11  14
ENDBRANCH   5  10
BRANCH   7  26
ATOM     26  C   UNL d   1      35.210  -7.909  -4.043  0.00  0.00     0.194 C 
ATOM     27  OXT UNL d   1      34.683  -8.987  -3.802  0.00  0.00    -0.645 OA
BRANCH  26  28
ATOM     28  O   UNL d   1      34.474  -6.799  -4.226  0.00  0.00    -0.772 OA
ATOM     29  H   UNL d   1      34.773  -6.007  -3.730  0.00  0.00     0.167 HD
ENDBRANCH  26  28
ENDBRANCH   7  26
BRANCH   8  30
ATOM     30  C   UNL d   1      37.186  -7.440  -1.848  0.00  0.00     0.216 C 
BRANCH  30  31
ATOM     31  O   UNL d   1      37.549  -6.130  -1.386  0.00  0.00    -0.317 OA
BRANCH  31  32
ATOM     32  C   UNL d   1      37.738  -5.994  -0.047  0.00  0.00     0.255 C 
ATOM     33  O   UNL d   1      36.866  -6.065   0.804  0.00  0.00    -0.266 OA
ATOM     34  C   UNL d   1      39.190  -5.759   0.245  0.00  0.00     0.126 C 
ENDBRANCH  31  32
ENDBRANCH  30  31
ENDBRANCH   8  30
TORSDOF 10
ENDMDL
