MODEL 1
REMARK VINA RESULT:      -9.2      0.000      0.000
REMARK  12 active torsions:
REMARK  status: ('A' for Active; 'I' for Inactive)
REMARK    1  A    between atoms: O_3  and  C_31 
REMARK    2  A    between atoms: OE1_5  and  CD_32 
REMARK    3  A    between atoms: N_9  and  C_16 
REMARK    4  A    between atoms: N_9  and  C_20 
REMARK    5  A    between atoms: CA_21  and  N_12 
REMARK       I    between atoms: N_12  and  C17_30 
REMARK    6  A    between atoms: N_13  and  C_23 
REMARK    7  A    between atoms: C_14  and  C_16 
REMARK    8  A    between atoms: CA_21  and  CB_22 
REMARK    9  A    between atoms: CA_21  and  C_31 
REMARK   10  A    between atoms: CB_22  and  CG_29 
REMARK   11  A    between atoms: C_26  and  C17_30 
REMARK   12  A    between atoms: CG_29  and  CD_32 
ROOT
ATOM      1  C   UNL d   1      20.727  19.449   8.817  0.00  0.00     0.028 A 
ATOM      2  C   UNL d   1      19.331  19.378   8.716  0.00  0.00     0.030 A 
ATOM      3  C   UNL d   1      21.272  19.955  10.004  0.00  0.00     0.030 A 
ATOM      4  C   UNL d   1      19.061  20.302  10.934  0.00  0.00     0.032 A 
ATOM      5  C   UNL d   1      18.501  19.779   9.770  0.00  0.00     0.019 A 
ATOM      6  C   UNL d   1      20.453  20.372  11.058  0.00  0.00     0.019 A 
ENDROOT
BRANCH   1   7
ATOM      7  N   UNL d   1      21.589  19.174   7.759  0.00  0.00    -0.388 N 
ATOM      8  H   UNL d   1      21.212  18.496   7.093  0.00  0.00     0.159 HD
BRANCH   7   9
ATOM      9  C   UNL d   1      22.328  20.251   7.104  0.00  0.00     0.141 C 
BRANCH   9  10
ATOM     10  C   UNL d   1      21.393  21.200   6.345  0.00  0.00     0.096 C 
ATOM     11  N   UNL d   1      20.829  20.557   5.137  0.00  0.00    -0.278 NA
ATOM     12  C   UNL d   1      20.120  21.408   4.270  0.00  0.00     0.123 A 
ATOM     13  H   UNL d   1      20.314  19.688   5.283  0.00  0.00     0.128 HD
ATOM     14  C   UNL d   1      20.273  22.759   4.241  0.00  0.00     0.153 A 
ATOM     15  C   UNL d   1      19.066  20.827   3.392  0.00  0.00     0.272 A 
ATOM     16  N   UNL d   1      21.170  23.346   5.138  0.00  0.00    -0.371 N 
ATOM     17  N   UNL d   1      19.555  23.578   3.407  0.00  0.00    -0.201 NA
ATOM     18  C   UNL d   1      22.097  22.524   5.929  0.00  0.00     0.142 C 
ATOM     19  H   UNL d   1      21.529  24.221   4.768  0.00  0.00     0.161 HD
ATOM     20  C   UNL d   1      18.641  23.052   2.659  0.00  0.00     0.181 A 
ATOM     21  N   UNL d   1      18.392  21.715   2.614  0.00  0.00    -0.297 N 
ATOM     22  H   UNL d   1      17.638  21.350   2.063  0.00  0.00     0.171 HD
ATOM     23  O   UNL d   1      18.797  19.628   3.409  0.00  0.00    -0.266 OA
BRANCH  20  24
ATOM     24  N   UNL d   1      17.875  23.838   1.865  0.00  0.00    -0.272 NA
ATOM     25  H   UNL d   1      16.947  23.511   1.637  0.00  0.00     0.127 HD
ATOM     26  H   UNL d   1      18.390  24.192   1.065  0.00  0.00     0.127 HD
ENDBRANCH  20  24
ENDBRANCH   9  10
ENDBRANCH   7   9
ENDBRANCH   1   7
BRANCH   4  27
ATOM     27  C17 <1> d   1      18.226  20.868  12.024  0.00  0.00     0.252 C 
ATOM     28  O   UNL d   1      17.747  21.993  11.935  0.00  0.00    -0.268 OA
ATOM     29  N   UNL d   1      17.872  20.014  13.039  0.00  0.00    -0.343 N 
ATOM     30  H   UNL d   1      17.108  20.284  13.646  0.00  0.00     0.163 HD
BRANCH  29  31
ATOM     31  CA  UNL d   1      18.401  18.651  13.242  0.00  0.00     0.183 C 
BRANCH  31  32
ATOM     32  CB  UNL d   1      18.609  18.340  14.730  0.00  0.00     0.046 C 
BRANCH  32  33
ATOM     33  CG  UNL d   1      17.309  18.210  15.538  0.00  0.00     0.112 C 
BRANCH  33  34
ATOM     34  CD  UNL d   1      17.551  18.450  17.010  0.00  0.00     0.139 C 
ATOM     35  OE2 UNL d   1      16.981  19.297  17.675  0.00  0.00    -0.650 OA
BRANCH  34  36
ATOM     36  OE1 UNL d   1      18.518  17.660  17.527  0.00  0.00    -0.776 OA
ATOM     37  HE1 UNL d   1      18.474  17.547  18.497  0.00  0.00     0.167 HD
ENDBRANCH  34  36
ENDBRANCH  33  34
ENDBRANCH  32  33
ENDBRANCH  31  32
BRANCH  31  38
ATOM     38  C   UNL d   1      17.711  17.495  12.473  0.00  0.00     0.163 C 
ATOM     39  OXT UNL d   1      18.349  16.544  12.030  0.00  0.00    -0.648 OA
BRANCH  38  40
ATOM     40  O   UNL d   1      16.368  17.516  12.406  0.00  0.00    -0.775 OA
ATOM     41  H   UNL d   1      15.928  17.302  13.264  0.00  0.00     0.167 HD
ENDBRANCH  38  40
ENDBRANCH  31  38
ENDBRANCH  29  31
ENDBRANCH   4  27
TORSDOF 12
ENDMDL
MODEL 2
REMARK VINA RESULT:      -8.9      1.402      2.618
REMARK  12 active torsions:
REMARK  status: ('A' for Active; 'I' for Inactive)
REMARK    1  A    between atoms: O_3  and  C_31 
REMARK    2  A    between atoms: OE1_5  and  CD_32 
REMARK    3  A    between atoms: N_9  and  C_16 
REMARK    4  A    between atoms: N_9  and  C_20 
REMARK    5  A    between atoms: CA_21  and  N_12 
REMARK       I    between atoms: N_12  and  C17_30 
REMARK    6  A    between atoms: N_13  and  C_23 
REMARK    7  A    between atoms: C_14  and  C_16 
REMARK    8  A    between atoms: CA_21  and  CB_22 
REMARK    9  A    between atoms: CA_21  and  C_31 
REMARK   10  A    between atoms: CB_22  and  CG_29 
REMARK   11  A    between atoms: C_26  and  C17_30 
REMARK   12  A    between atoms: CG_29  and  CD_32 
ROOT
ATOM      1  C   UNL d   1      21.212  19.300   8.772  0.00  0.00     0.028 A 
ATOM      2  C   UNL d   1      19.864  19.603   9.006  0.00  0.00     0.030 A 
ATOM      3  C   UNL d   1      22.098  19.381   9.853  0.00  0.00     0.030 A 
ATOM      4  C   UNL d   1      20.307  20.057  11.340  0.00  0.00     0.032 A 
ATOM      5  C   UNL d   1      19.405  19.959  10.281  0.00  0.00     0.019 A 
ATOM      6  C   UNL d   1      21.655  19.748  11.128  0.00  0.00     0.019 A 
ENDROOT
BRANCH   1   7
ATOM      7  N   UNL d   1      21.736  19.056   7.505  0.00  0.00    -0.388 N 
ATOM      8  H   UNL d   1      21.110  18.518   6.903  0.00  0.00     0.159 HD
BRANCH   7   9
ATOM      9  C   UNL d   1      22.444  20.109   6.780  0.00  0.00     0.141 C 
BRANCH   9  10
ATOM     10  C   UNL d   1      21.472  21.083   6.104  0.00  0.00     0.096 C 
ATOM     11  N   UNL d   1      20.827  20.474   4.918  0.00  0.00    -0.278 NA
ATOM     12  C   UNL d   1      20.074  21.352   4.118  0.00  0.00     0.123 A 
ATOM     13  H   UNL d   1      20.315  19.606   5.076  0.00  0.00     0.128 HD
ATOM     14  C   UNL d   1      20.238  22.702   4.112  0.00  0.00     0.153 A 
ATOM     15  C   UNL d   1      18.963  20.801   3.294  0.00  0.00     0.272 A 
ATOM     16  N   UNL d   1      21.194  23.260   4.965  0.00  0.00    -0.371 N 
ATOM     17  N   UNL d   1      19.476  23.547   3.344  0.00  0.00    -0.201 NA
ATOM     18  C   UNL d   1      22.161  22.412   5.676  0.00  0.00     0.142 C 
ATOM     19  H   UNL d   1      21.537  24.140   4.595  0.00  0.00     0.161 HD
ATOM     20  C   UNL d   1      18.513  23.046   2.643  0.00  0.00     0.181 A 
ATOM     21  N   UNL d   1      18.250  21.713   2.581  0.00  0.00    -0.297 N 
ATOM     22  H   UNL d   1      17.459  21.367   2.070  0.00  0.00     0.171 HD
ATOM     23  O   UNL d   1      18.684  19.604   3.299  0.00  0.00    -0.266 OA
BRANCH  20  24
ATOM     24  N   UNL d   1      17.706  23.857   1.917  0.00  0.00    -0.272 NA
ATOM     25  H   UNL d   1      17.597  23.653   0.934  0.00  0.00     0.127 HD
ATOM     26  H   UNL d   1      17.874  24.839   2.112  0.00  0.00     0.127 HD
ENDBRANCH  20  24
ENDBRANCH   9  10
ENDBRANCH   7   9
ENDBRANCH   1   7
BRANCH   4  27
ATOM     27  C17 <1> d   1      19.899  20.562  12.676  0.00  0.00     0.252 C 
ATOM     28  O   UNL d   1      20.179  21.700  13.035  0.00  0.00    -0.268 OA
ATOM     29  N   UNL d   1      19.050  19.765  13.404  0.00  0.00    -0.343 N 
ATOM     30  H   UNL d   1      18.555  20.183  14.183  0.00  0.00     0.163 HD
BRANCH  29  31
ATOM     31  CA  UNL d   1      18.664  18.381  13.066  0.00  0.00     0.183 C 
BRANCH  31  32
ATOM     32  CB  UNL d   1      19.748  17.374  13.475  0.00  0.00     0.046 C 
BRANCH  32  33
ATOM     33  CG  UNL d   1      19.654  16.018  12.760  0.00  0.00     0.112 C 
BRANCH  33  34
ATOM     34  CD  UNL d   1      19.775  16.178  11.263  0.00  0.00     0.139 C 
ATOM     35  OE2 UNL d   1      20.829  16.294  10.663  0.00  0.00    -0.650 OA
BRANCH  34  36
ATOM     36  OE1 UNL d   1      18.579  16.236  10.634  0.00  0.00    -0.776 OA
ATOM     37  HE1 UNL d   1      18.631  16.197   9.660  0.00  0.00     0.167 HD
ENDBRANCH  34  36
ENDBRANCH  33  34
ENDBRANCH  32  33
ENDBRANCH  31  32
BRANCH  31  38
ATOM     38  C   UNL d   1      17.235  17.923  13.455  0.00  0.00     0.163 C 
ATOM     39  OXT UNL d   1      16.838  17.967  14.617  0.00  0.00    -0.648 OA
BRANCH  38  40
ATOM     40  O   UNL d   1      16.404  17.582  12.454  0.00  0.00    -0.775 OA
ATOM     41  H   UNL d   1      16.487  18.162  11.659  0.00  0.00     0.167 HD
ENDBRANCH  38  40
ENDBRANCH  31  38
ENDBRANCH  29  31
ENDBRANCH   4  27
TORSDOF 12
ENDMDL
MODEL 3
REMARK VINA RESULT:      -8.6      1.442      2.066
REMARK  12 active torsions:
REMARK  status: ('A' for Active; 'I' for Inactive)
REMARK    1  A    between atoms: O_3  and  C_31 
REMARK    2  A    between atoms: OE1_5  and  CD_32 
REMARK    3  A    between atoms: N_9  and  C_16 
REMARK    4  A    between atoms: N_9  and  C_20 
REMARK    5  A    between atoms: CA_21  and  N_12 
REMARK       I    between atoms: N_12  and  C17_30 
REMARK    6  A    between atoms: N_13  and  C_23 
REMARK    7  A    between atoms: C_14  and  C_16 
REMARK    8  A    between atoms: CA_21  and  CB_22 
REMARK    9  A    between atoms: CA_21  and  C_31 
REMARK   10  A    between atoms: CB_22  and  CG_29 
REMARK   11  A    between atoms: C_26  and  C17_30 
REMARK   12  A    between atoms: CG_29  and  CD_32 
ROOT
ATOM      1  C   UNL d   1      20.757  19.791   8.884  0.00  0.00     0.028 A 
ATOM      2  C   UNL d   1      21.356  20.284  10.051  0.00  0.00     0.030 A 
ATOM      3  C   UNL d   1      19.359  19.712   8.850  0.00  0.00     0.030 A 
ATOM      4  C   UNL d   1      19.201  20.598  11.102  0.00  0.00     0.032 A 
ATOM      5  C   UNL d   1      20.590  20.705  11.145  0.00  0.00     0.019 A 
ATOM      6  C   UNL d   1      18.583  20.117   9.941  0.00  0.00     0.019 A 
ENDROOT
BRANCH   1   7
ATOM      7  N   UNL d   1      21.475  19.253   7.820  0.00  0.00    -0.388 N 
ATOM      8  H   UNL d   1      20.979  18.503   7.333  0.00  0.00     0.159 HD
BRANCH   7   9
ATOM      9  C   UNL d   1      22.213  20.122   6.907  0.00  0.00     0.141 C 
BRANCH   9  10
ATOM     10  C   UNL d   1      21.280  21.098   6.178  0.00  0.00     0.096 C 
ATOM     11  N   UNL d   1      20.696  20.489   4.962  0.00  0.00    -0.278 NA
ATOM     12  C   UNL d   1      19.989  21.368   4.122  0.00  0.00     0.123 A 
ATOM     13  H   UNL d   1      20.173  19.623   5.095  0.00  0.00     0.128 HD
ATOM     14  C   UNL d   1      20.158  22.717   4.121  0.00  0.00     0.153 A 
ATOM     15  C   UNL d   1      18.920  20.818   3.242  0.00  0.00     0.272 A 
ATOM     16  N   UNL d   1      21.071  23.274   5.021  0.00  0.00    -0.371 N 
ATOM     17  N   UNL d   1      19.441  23.563   3.312  0.00  0.00    -0.201 NA
ATOM     18  C   UNL d   1      21.996  22.423   5.783  0.00  0.00     0.142 C 
ATOM     19  H   UNL d   1      21.436  24.152   4.667  0.00  0.00     0.161 HD
ATOM     20  C   UNL d   1      18.513  23.063   2.563  0.00  0.00     0.181 A 
ATOM     21  N   UNL d   1      18.249  21.731   2.491  0.00  0.00    -0.297 N 
ATOM     22  H   UNL d   1      17.484  21.387   1.940  0.00  0.00     0.171 HD
ATOM     23  O   UNL d   1      18.636  19.622   3.235  0.00  0.00    -0.266 OA
BRANCH  20  24
ATOM     24  N   UNL d   1      17.749  23.876   1.794  0.00  0.00    -0.272 NA
ATOM     25  H   UNL d   1      16.789  24.019   2.074  0.00  0.00     0.127 HD
ATOM     26  H   UNL d   1      17.860  23.682   0.803  0.00  0.00     0.127 HD
ENDBRANCH  20  24
ENDBRANCH   9  10
ENDBRANCH   7   9
ENDBRANCH   1   7
BRANCH   4  27
ATOM     27  C17 <1> d   1      18.351  20.899  12.281  0.00  0.00     0.252 C 
ATOM     28  O   UNL d   1      17.823  21.997  12.416  0.00  0.00    -0.268 OA
ATOM     29  N   UNL d   1      18.043  19.845  13.106  0.00  0.00    -0.343 N 
ATOM     30  H   UNL d   1      17.272  19.956  13.754  0.00  0.00     0.163 HD
BRANCH  29  31
ATOM     31  CA  UNL d   1      18.632  18.494  13.035  0.00  0.00     0.183 C 
BRANCH  31  32
ATOM     32  CB  UNL d   1      19.208  18.055  14.388  0.00  0.00     0.046 C 
BRANCH  32  33
ATOM     33  CG  UNL d   1      20.655  17.542  14.323  0.00  0.00     0.112 C 
BRANCH  33  34
ATOM     34  CD  UNL d   1      21.618  18.657  13.989  0.00  0.00     0.139 C 
ATOM     35  OE2 UNL d   1      22.521  18.569  13.176  0.00  0.00    -0.650 OA
BRANCH  34  36
ATOM     36  OE1 UNL d   1      21.421  19.772  14.728  0.00  0.00    -0.776 OA
ATOM     37  HE1 UNL d   1      20.483  19.994  14.883  0.00  0.00     0.167 HD
ENDBRANCH  34  36
ENDBRANCH  33  34
ENDBRANCH  32  33
ENDBRANCH  31  32
BRANCH  31  38
ATOM     38  C   UNL d   1      17.794  17.385  12.346  0.00  0.00     0.163 C 
ATOM     39  OXT UNL d   1      18.319  16.382  11.871  0.00  0.00    -0.648 OA
BRANCH  38  40
ATOM     40  O   UNL d   1      16.456  17.509  12.388  0.00  0.00    -0.775 OA
ATOM     41  H   UNL d   1      16.064  17.254  13.258  0.00  0.00     0.167 HD
ENDBRANCH  38  40
ENDBRANCH  31  38
ENDBRANCH  29  31
ENDBRANCH   4  27
TORSDOF 12
ENDMDL
MODEL 4
REMARK VINA RESULT:      -8.5      1.659      2.484
REMARK  12 active torsions:
REMARK  status: ('A' for Active; 'I' for Inactive)
REMARK    1  A    between atoms: O_3  and  C_31 
REMARK    2  A    between atoms: OE1_5  and  CD_32 
REMARK    3  A    between atoms: N_9  and  C_16 
REMARK    4  A    between atoms: N_9  and  C_20 
REMARK    5  A    between atoms: CA_21  and  N_12 
REMARK       I    between atoms: N_12  and  C17_30 
REMARK    6  A    between atoms: N_13  and  C_23 
REMARK    7  A    between atoms: C_14  and  C_16 
REMARK    8  A    between atoms: CA_21  and  CB_22 
REMARK    9  A    between atoms: CA_21  and  C_31 
REMARK   10  A    between atoms: CB_22  and  CG_29 
REMARK   11  A    between atoms: C_26  and  C17_30 
REMARK   12  A    between atoms: CG_29  and  CD_32 
ROOT
ATOM      1  C   UNL d   1      21.933  19.228   8.985  0.00  0.00     0.028 A 
ATOM      2  C   UNL d   1      21.852  18.130   9.852  0.00  0.00     0.030 A 
ATOM      3  C   UNL d   1      22.094  20.499   9.552  0.00  0.00     0.030 A 
ATOM      4  C   UNL d   1      22.083  19.561  11.788  0.00  0.00     0.032 A 
ATOM      5  C   UNL d   1      21.947  18.286  11.241  0.00  0.00     0.019 A 
ATOM      6  C   UNL d   1      22.176  20.670  10.938  0.00  0.00     0.019 A 
ENDROOT
BRANCH   1   7
ATOM      7  N   UNL d   1      21.727  19.139   7.611  0.00  0.00    -0.388 N 
ATOM      8  H   UNL d   1      20.748  18.995   7.355  0.00  0.00     0.159 HD
BRANCH   7   9
ATOM      9  C   UNL d   1      22.418  20.046   6.697  0.00  0.00     0.141 C 
BRANCH   9  10
ATOM     10  C   UNL d   1      21.447  21.037   6.042  0.00  0.00     0.096 C 
ATOM     11  N   UNL d   1      20.787  20.449   4.855  0.00  0.00    -0.278 NA
ATOM     12  C   UNL d   1      20.033  21.343   4.073  0.00  0.00     0.123 A 
ATOM     13  H   UNL d   1      20.269  19.583   5.006  0.00  0.00     0.128 HD
ATOM     14  C   UNL d   1      20.208  22.692   4.083  0.00  0.00     0.153 A 
ATOM     15  C   UNL d   1      18.910  20.812   3.253  0.00  0.00     0.272 A 
ATOM     16  N   UNL d   1      21.178  23.231   4.933  0.00  0.00    -0.371 N 
ATOM     17  N   UNL d   1      19.447  23.552   3.333  0.00  0.00    -0.201 NA
ATOM     18  C   UNL d   1      22.143  22.365   5.625  0.00  0.00     0.142 C 
ATOM     19  H   UNL d   1      21.524  24.113   4.571  0.00  0.00     0.161 HD
ATOM     20  C   UNL d   1      18.473  23.068   2.634  0.00  0.00     0.181 A 
ATOM     21  N   UNL d   1      18.198  21.739   2.558  0.00  0.00    -0.297 N 
ATOM     22  H   UNL d   1      17.399  21.406   2.050  0.00  0.00     0.171 HD
ATOM     23  O   UNL d   1      18.621  19.617   3.245  0.00  0.00    -0.266 OA
BRANCH  20  24
ATOM     24  N   UNL d   1      17.666  23.896   1.926  0.00  0.00    -0.272 NA
ATOM     25  H   UNL d   1      17.707  24.883   2.136  0.00  0.00     0.127 HD
ATOM     26  H   UNL d   1      16.720  23.535   1.849  0.00  0.00     0.127 HD
ENDBRANCH  20  24
ENDBRANCH   9  10
ENDBRANCH   7   9
ENDBRANCH   1   7
BRANCH   4  27
ATOM     27  C17 <1> d   1      22.050  19.796  13.253  0.00  0.00     0.252 C 
ATOM     28  O   UNL d   1      23.085  19.862  13.907  0.00  0.00    -0.268 OA
ATOM     29  N   UNL d   1      20.831  20.114  13.800  0.00  0.00    -0.343 N 
ATOM     30  H   UNL d   1      20.816  20.528  14.725  0.00  0.00     0.163 HD
BRANCH  29  31
ATOM     31  CA  UNL d   1      19.531  20.053  13.104  0.00  0.00     0.183 C 
BRANCH  31  32
ATOM     32  CB  UNL d   1      18.534  19.149  13.842  0.00  0.00     0.046 C 
BRANCH  32  33
ATOM     33  CG  UNL d   1      19.094  18.496  15.115  0.00  0.00     0.112 C 
BRANCH  33  34
ATOM     34  CD  UNL d   1      17.994  18.198  16.108  0.00  0.00     0.139 C 
ATOM     35  OE2 UNL d   1      16.804  18.215  15.845  0.00  0.00    -0.650 OA
BRANCH  34  36
ATOM     36  OE1 UNL d   1      18.453  17.957  17.356  0.00  0.00    -0.776 OA
ATOM     37  HE1 UNL d   1      18.768  17.044  17.502  0.00  0.00     0.167 HD
ENDBRANCH  34  36
ENDBRANCH  33  34
ENDBRANCH  32  33
ENDBRANCH  31  32
BRANCH  31  38
ATOM     38  C   UNL d   1      18.905  21.394  12.643  0.00  0.00     0.163 C 
ATOM     39  OXT UNL d   1      17.714  21.486  12.358  0.00  0.00    -0.648 OA
BRANCH  38  40
ATOM     40  O   UNL d   1      19.693  22.484  12.674  0.00  0.00    -0.775 OA
ATOM     41  H   UNL d   1      19.568  23.037  13.484  0.00  0.00     0.167 HD
ENDBRANCH  38  40
ENDBRANCH  31  38
ENDBRANCH  29  31
ENDBRANCH   4  27
TORSDOF 12
ENDMDL
MODEL 5
REMARK VINA RESULT:      -8.5      3.853      6.302
REMARK  12 active torsions:
REMARK  status: ('A' for Active; 'I' for Inactive)
REMARK    1  A    between atoms: O_3  and  C_31 
REMARK    2  A    between atoms: OE1_5  and  CD_32 
REMARK    3  A    between atoms: N_9  and  C_16 
REMARK    4  A    between atoms: N_9  and  C_20 
REMARK    5  A    between atoms: CA_21  and  N_12 
REMARK       I    between atoms: N_12  and  C17_30 
REMARK    6  A    between atoms: N_13  and  C_23 
REMARK    7  A    between atoms: C_14  and  C_16 
REMARK    8  A    between atoms: CA_21  and  CB_22 
REMARK    9  A    between atoms: CA_21  and  C_31 
REMARK   10  A    between atoms: CB_22  and  CG_29 
REMARK   11  A    between atoms: C_26  and  C17_30 
REMARK   12  A    between atoms: CG_29  and  CD_32 
ROOT
ATOM      1  C   UNL d   1      18.708  17.043  12.300  0.00  0.00     0.028 A 
ATOM      2  C   UNL d   1      19.375  16.837  13.515  0.00  0.00     0.030 A 
ATOM      3  C   UNL d   1      18.962  16.148  11.253  0.00  0.00     0.030 A 
ATOM      4  C   UNL d   1      20.515  14.895  12.631  0.00  0.00     0.032 A 
ATOM      5  C   UNL d   1      20.256  15.762  13.692  0.00  0.00     0.019 A 
ATOM      6  C   UNL d   1      19.850  15.079  11.413  0.00  0.00     0.019 A 
ENDROOT
BRANCH   1   7
ATOM      7  N   UNL d   1      17.917  18.158  12.038  0.00  0.00    -0.388 N 
ATOM      8  H   UNL d   1      17.003  18.126  12.495  0.00  0.00     0.159 HD
BRANCH   7   9
ATOM      9  C   UNL d   1      18.498  19.499  12.042  0.00  0.00     0.141 C 
BRANCH   9  10
ATOM     10  C   UNL d   1      18.872  19.957  10.627  0.00  0.00     0.096 C 
ATOM     11  N   UNL d   1      20.158  19.371  10.186  0.00  0.00    -0.278 NA
ATOM     12  C   UNL d   1      20.682  19.887   8.987  0.00  0.00     0.123 A 
ATOM     13  H   UNL d   1      20.218  18.352  10.193  0.00  0.00     0.128 HD
ATOM     14  C   UNL d   1      20.341  21.098   8.469  0.00  0.00     0.153 A 
ATOM     15  C   UNL d   1      21.592  19.034   8.173  0.00  0.00     0.272 A 
ATOM     16  N   UNL d   1      19.398  21.871   9.151  0.00  0.00    -0.371 N 
ATOM     17  N   UNL d   1      20.842  21.575   7.284  0.00  0.00    -0.201 NA
ATOM     18  C   UNL d   1      18.957  21.507  10.505  0.00  0.00     0.142 C 
ATOM     19  H   UNL d   1      19.535  22.858   8.960  0.00  0.00     0.161 HD
ATOM     20  C   UNL d   1      21.624  20.814   6.592  0.00  0.00     0.181 A 
ATOM     21  N   UNL d   1      22.023  19.581   7.005  0.00  0.00    -0.297 N 
ATOM     22  H   UNL d   1      22.587  18.997   6.415  0.00  0.00     0.171 HD
ATOM     23  O   UNL d   1      21.891  17.893   8.517  0.00  0.00    -0.266 OA
BRANCH  20  24
ATOM     24  N   UNL d   1      22.093  21.232   5.391  0.00  0.00    -0.272 NA
ATOM     25  H   UNL d   1      21.814  20.710   4.572  0.00  0.00     0.127 HD
ATOM     26  H   UNL d   1      23.085  21.445   5.420  0.00  0.00     0.127 HD
ENDBRANCH  20  24
ENDBRANCH   9  10
ENDBRANCH   7   9
ENDBRANCH   1   7
BRANCH   4  27
ATOM     27  C17 <1> d   1      21.540  13.825  12.721  0.00  0.00     0.252 C 
ATOM     28  O   UNL d   1      21.231  12.675  13.012  0.00  0.00    -0.268 OA
ATOM     29  N   UNL d   1      22.805  14.144  12.292  0.00  0.00    -0.343 N 
ATOM     30  H   UNL d   1      23.448  13.386  12.097  0.00  0.00     0.163 HD
BRANCH  29  31
ATOM     31  CA  UNL d   1      23.279  15.495  11.934  0.00  0.00     0.183 C 
BRANCH  31  32
ATOM     32  CB  UNL d   1      23.656  16.311  13.178  0.00  0.00     0.046 C 
BRANCH  32  33
ATOM     33  CG  UNL d   1      24.128  17.742  12.878  0.00  0.00     0.112 C 
BRANCH  33  34
ATOM     34  CD  UNL d   1      23.023  18.564  12.256  0.00  0.00     0.139 C 
ATOM     35  OE2 UNL d   1      21.952  18.797  12.788  0.00  0.00    -0.650 OA
BRANCH  34  36
ATOM     36  OE1 UNL d   1      23.312  18.985  11.004  0.00  0.00    -0.776 OA
ATOM     37  HE1 UNL d   1      23.409  19.953  10.915  0.00  0.00     0.167 HD
ENDBRANCH  34  36
ENDBRANCH  33  34
ENDBRANCH  32  33
ENDBRANCH  31  32
BRANCH  31  38
ATOM     38  C   UNL d   1      24.326  15.607  10.797  0.00  0.00     0.163 C 
ATOM     39  OXT UNL d   1      25.378  14.972  10.824  0.00  0.00    -0.648 OA
BRANCH  38  40
ATOM     40  O   UNL d   1      23.991  16.340   9.720  0.00  0.00    -0.775 OA
ATOM     41  H   UNL d   1      23.120  16.798   9.812  0.00  0.00     0.167 HD
ENDBRANCH  38  40
ENDBRANCH  31  38
ENDBRANCH  29  31
ENDBRANCH   4  27
TORSDOF 12
ENDMDL
MODEL 6
REMARK VINA RESULT:      -8.4      4.330      7.241
REMARK  12 active torsions:
REMARK  status: ('A' for Active; 'I' for Inactive)
REMARK    1  A    between atoms: O_3  and  C_31 
REMARK    2  A    between atoms: OE1_5  and  CD_32 
REMARK    3  A    between atoms: N_9  and  C_16 
REMARK    4  A    between atoms: N_9  and  C_20 
REMARK    5  A    between atoms: CA_21  and  N_12 
REMARK       I    between atoms: N_12  and  C17_30 
REMARK    6  A    between atoms: N_13  and  C_23 
REMARK    7  A    between atoms: C_14  and  C_16 
REMARK    8  A    between atoms: CA_21  and  CB_22 
REMARK    9  A    between atoms: CA_21  and  C_31 
REMARK   10  A    between atoms: CB_22  and  CG_29 
REMARK   11  A    between atoms: C_26  and  C17_30 
REMARK   12  A    between atoms: CG_29  and  CD_32 
ROOT
ATOM      1  C   UNL d   1      21.143  15.343  12.729  0.00  0.00     0.028 A 
ATOM      2  C   UNL d   1      20.333  15.262  11.588  0.00  0.00     0.030 A 
ATOM      3  C   UNL d   1      20.697  16.140  13.791  0.00  0.00     0.030 A 
ATOM      4  C   UNL d   1      18.693  16.744  12.568  0.00  0.00     0.032 A 
ATOM      5  C   UNL d   1      19.108  15.936  11.510  0.00  0.00     0.019 A 
ATOM      6  C   UNL d   1      19.483  16.830  13.721  0.00  0.00     0.019 A 
ENDROOT
BRANCH   1   7
ATOM      7  N   UNL d   1      22.417  14.789  12.809  0.00  0.00    -0.388 N 
ATOM      8  H   UNL d   1      22.684  14.262  11.975  0.00  0.00     0.159 HD
BRANCH   7   9
ATOM      9  C   UNL d   1      23.528  15.558  13.365  0.00  0.00     0.141 C 
BRANCH   9  10
ATOM     10  C   UNL d   1      24.115  16.530  12.335  0.00  0.00     0.096 C 
ATOM     11  N   UNL d   1      23.371  17.810  12.308  0.00  0.00    -0.278 NA
ATOM     12  C   UNL d   1      23.708  18.686  11.260  0.00  0.00     0.123 A 
ATOM     13  H   UNL d   1      23.308  18.317  13.192  0.00  0.00     0.128 HD
ATOM     14  C   UNL d   1      24.309  18.293  10.106  0.00  0.00     0.153 A 
ATOM     15  C   UNL d   1      23.488  20.148  11.446  0.00  0.00     0.272 A 
ATOM     16  N   UNL d   1      24.636  16.943   9.953  0.00  0.00    -0.371 N 
ATOM     17  N   UNL d   1      24.654  19.165   9.104  0.00  0.00    -0.201 NA
ATOM     18  C   UNL d   1      24.140  15.932  10.898  0.00  0.00     0.142 C 
ATOM     19  H   UNL d   1      24.657  16.686   8.971  0.00  0.00     0.161 HD
ATOM     20  C   UNL d   1      24.460  20.430   9.291  0.00  0.00     0.181 A 
ATOM     21  N   UNL d   1      23.877  20.938  10.410  0.00  0.00    -0.297 N 
ATOM     22  H   UNL d   1      23.794  21.929  10.543  0.00  0.00     0.171 HD
ATOM     23  O   UNL d   1      23.027  20.607  12.489  0.00  0.00    -0.266 OA
BRANCH  20  24
ATOM     24  N   UNL d   1      24.840  21.324   8.346  0.00  0.00    -0.272 NA
ATOM     25  H   UNL d   1      24.349  22.206   8.311  0.00  0.00     0.127 HD
ATOM     26  H   UNL d   1      24.964  20.890   7.437  0.00  0.00     0.127 HD
ENDBRANCH  20  24
ENDBRANCH   9  10
ENDBRANCH   7   9
ENDBRANCH   1   7
BRANCH   4  27
ATOM     27  C17 <1> d   1      17.474  17.587  12.482  0.00  0.00     0.252 C 
ATOM     28  O   UNL d   1      16.391  17.177  12.884  0.00  0.00    -0.268 OA
ATOM     29  N   UNL d   1      17.654  18.895  12.105  0.00  0.00    -0.343 N 
ATOM     30  H   UNL d   1      16.903  19.551  12.286  0.00  0.00     0.163 HD
BRANCH  29  31
ATOM     31  CA  UNL d   1      18.909  19.482  11.596  0.00  0.00     0.183 C 
BRANCH  31  32
ATOM     32  CB  UNL d   1      18.951  19.485  10.062  0.00  0.00     0.046 C 
BRANCH  32  33
ATOM     33  CG  UNL d   1      20.110  18.677   9.458  0.00  0.00     0.112 C 
BRANCH  33  34
ATOM     34  CD  UNL d   1      21.025  19.558   8.640  0.00  0.00     0.139 C 
ATOM     35  OE2 UNL d   1      21.104  20.769   8.756  0.00  0.00    -0.650 OA
BRANCH  34  36
ATOM     36  OE1 UNL d   1      21.727  18.877   7.706  0.00  0.00    -0.776 OA
ATOM     37  HE1 UNL d   1      21.845  19.353   6.862  0.00  0.00     0.167 HD
ENDBRANCH  34  36
ENDBRANCH  33  34
ENDBRANCH  32  33
ENDBRANCH  31  32
BRANCH  31  38
ATOM     38  C   UNL d   1      19.374  20.824  12.217  0.00  0.00     0.163 C 
ATOM     39  OXT UNL d   1      19.007  21.179  13.334  0.00  0.00    -0.648 OA
BRANCH  38  40
ATOM     40  O   UNL d   1      20.286  21.536  11.533  0.00  0.00    -0.775 OA
ATOM     41  H   UNL d   1      20.403  22.457  11.873  0.00  0.00     0.167 HD
ENDBRANCH  38  40
ENDBRANCH  31  38
ENDBRANCH  29  31
ENDBRANCH   4  27
TORSDOF 12
ENDMDL
MODEL 7
REMARK VINA RESULT:      -8.4      1.764      2.327
REMARK  12 active torsions:
REMARK  status: ('A' for Active; 'I' for Inactive)
REMARK    1  A    between atoms: O_3  and  C_31 
REMARK    2  A    between atoms: OE1_5  and  CD_32 
REMARK    3  A    between atoms: N_9  and  C_16 
REMARK    4  A    between atoms: N_9  and  C_20 
REMARK    5  A    between atoms: CA_21  and  N_12 
REMARK       I    between atoms: N_12  and  C17_30 
REMARK    6  A    between atoms: N_13  and  C_23 
REMARK    7  A    between atoms: C_14  and  C_16 
REMARK    8  A    between atoms: CA_21  and  CB_22 
REMARK    9  A    between atoms: CA_21  and  C_31 
REMARK   10  A    between atoms: CB_22  and  CG_29 
REMARK   11  A    between atoms: C_26  and  C17_30 
REMARK   12  A    between atoms: CG_29  and  CD_32 
ROOT
ATOM      1  C   UNL d   1      22.091  19.160  10.049  0.00  0.00     0.028 A 
ATOM      2  C   UNL d   1      20.762  19.222   9.608  0.00  0.00     0.030 A 
ATOM      3  C   UNL d   1      22.362  19.552  11.366  0.00  0.00     0.030 A 
ATOM      4  C   UNL d   1      20.022  20.052  11.755  0.00  0.00     0.032 A 
ATOM      5  C   UNL d   1      19.729  19.643  10.456  0.00  0.00     0.019 A 
ATOM      6  C   UNL d   1      21.342  19.988  12.218  0.00  0.00     0.019 A 
ENDROOT
BRANCH   1   7
ATOM      7  N   UNL d   1      23.164  18.862   9.214  0.00  0.00    -0.388 N 
ATOM      8  H   UNL d   1      22.895  18.348   8.373  0.00  0.00     0.159 HD
BRANCH   7   9
ATOM      9  C   UNL d   1      24.202  19.857   8.955  0.00  0.00     0.141 C 
BRANCH   9  10
ATOM     10  C   UNL d   1      23.684  20.998   8.072  0.00  0.00     0.096 C 
ATOM     11  N   UNL d   1      23.081  20.487   6.820  0.00  0.00    -0.278 NA
ATOM     12  C   UNL d   1      22.759  21.462   5.858  0.00  0.00     0.123 A 
ATOM     13  H   UNL d   1      22.315  19.821   6.924  0.00  0.00     0.128 HD
ATOM     14  C   UNL d   1      23.318  22.701   5.818  0.00  0.00     0.153 A 
ATOM     15  C   UNL d   1      21.678  21.174   4.876  0.00  0.00     0.272 A 
ATOM     16  N   UNL d   1      24.252  23.042   6.800  0.00  0.00    -0.371 N 
ATOM     17  N   UNL d   1      22.974  23.649   4.888  0.00  0.00    -0.201 NA
ATOM     18  C   UNL d   1      24.797  22.026   7.712  0.00  0.00     0.142 C 
ATOM     19  H   UNL d   1      24.896  23.747   6.457  0.00  0.00     0.161 HD
ATOM     20  C   UNL d   1      22.027  23.379   4.050  0.00  0.00     0.181 A 
ATOM     21  N   UNL d   1      21.391  22.178   4.005  0.00  0.00    -0.297 N 
ATOM     22  H   UNL d   1      20.623  22.025   3.378  0.00  0.00     0.171 HD
ATOM     23  O   UNL d   1      21.057  20.113   4.887  0.00  0.00    -0.266 OA
BRANCH  20  24
ATOM     24  N   UNL d   1      21.624  24.313   3.155  0.00  0.00    -0.272 NA
ATOM     25  H   UNL d   1      20.670  24.267   2.827  0.00  0.00     0.127 HD
ATOM     26  H   UNL d   1      22.303  24.451   2.413  0.00  0.00     0.127 HD
ENDBRANCH  20  24
ENDBRANCH   9  10
ENDBRANCH   7   9
ENDBRANCH   1   7
BRANCH   4  27
ATOM     27  C17 <1> d   1      18.989  20.636  12.648  0.00  0.00     0.252 C 
ATOM     28  O   UNL d   1      18.722  21.831  12.610  0.00  0.00    -0.268 OA
ATOM     29  N   UNL d   1      18.232  19.752  13.377  0.00  0.00    -0.343 N 
ATOM     30  H   UNL d   1      17.367  20.087  13.785  0.00  0.00     0.163 HD
BRANCH  29  31
ATOM     31  CA  UNL d   1      18.478  18.301  13.499  0.00  0.00     0.183 C 
BRANCH  31  32
ATOM     32  CB  UNL d   1      18.394  17.833  14.958  0.00  0.00     0.046 C 
BRANCH  32  33
ATOM     33  CG  UNL d   1      17.175  18.367  15.725  0.00  0.00     0.112 C 
BRANCH  33  34
ATOM     34  CD  UNL d   1      17.358  18.219  17.218  0.00  0.00     0.139 C 
ATOM     35  OE2 UNL d   1      18.080  17.391  17.746  0.00  0.00    -0.650 OA
BRANCH  34  36
ATOM     36  OE1 UNL d   1      16.593  19.071  17.936  0.00  0.00    -0.776 OA
ATOM     37  HE1 UNL d   1      16.175  18.673  18.724  0.00  0.00     0.167 HD
ENDBRANCH  34  36
ENDBRANCH  33  34
ENDBRANCH  32  33
ENDBRANCH  31  32
BRANCH  31  38
ATOM     38  C   UNL d   1      17.727  17.365  12.518  0.00  0.00     0.163 C 
ATOM     39  OXT UNL d   1      18.307  16.472  11.906  0.00  0.00    -0.648 OA
BRANCH  38  40
ATOM     40  O   UNL d   1      16.390  17.493  12.447  0.00  0.00    -0.775 OA
ATOM     41  H   UNL d   1      15.919  17.151  13.246  0.00  0.00     0.167 HD
ENDBRANCH  38  40
ENDBRANCH  31  38
ENDBRANCH  29  31
ENDBRANCH   4  27
TORSDOF 12
ENDMDL
MODEL 8
REMARK VINA RESULT:      -8.4      5.601      9.100
REMARK  12 active torsions:
REMARK  status: ('A' for Active; 'I' for Inactive)
REMARK    1  A    between atoms: O_3  and  C_31 
REMARK    2  A    between atoms: OE1_5  and  CD_32 
REMARK    3  A    between atoms: N_9  and  C_16 
REMARK    4  A    between atoms: N_9  and  C_20 
REMARK    5  A    between atoms: CA_21  and  N_12 
REMARK       I    between atoms: N_12  and  C17_30 
REMARK    6  A    between atoms: N_13  and  C_23 
REMARK    7  A    between atoms: C_14  and  C_16 
REMARK    8  A    between atoms: CA_21  and  CB_22 
REMARK    9  A    between atoms: CA_21  and  C_31 
REMARK   10  A    between atoms: CB_22  and  CG_29 
REMARK   11  A    between atoms: C_26  and  C17_30 
REMARK   12  A    between atoms: CG_29  and  CD_32 
ROOT
ATOM      1  C   UNL d   1      21.625  18.667  10.818  0.00  0.00     0.028 A 
ATOM      2  C   UNL d   1      22.732  17.847  11.075  0.00  0.00     0.030 A 
ATOM      3  C   UNL d   1      21.693  20.005  11.225  0.00  0.00     0.030 A 
ATOM      4  C   UNL d   1      23.922  19.674  12.121  0.00  0.00     0.032 A 
ATOM      5  C   UNL d   1      23.882  18.346  11.701  0.00  0.00     0.019 A 
ATOM      6  C   UNL d   1      22.830  20.512  11.864  0.00  0.00     0.019 A 
ENDROOT
BRANCH   1   7
ATOM      7  N   UNL d   1      20.420  18.192  10.307  0.00  0.00    -0.388 N 
ATOM      8  H   UNL d   1      20.449  18.011   9.301  0.00  0.00     0.159 HD
BRANCH   7   9
ATOM      9  C   UNL d   1      19.648  17.190  11.036  0.00  0.00     0.141 C 
BRANCH   9  10
ATOM     10  C   UNL d   1      18.899  17.806  12.224  0.00  0.00     0.096 C 
ATOM     11  N   UNL d   1      19.500  17.402  13.515  0.00  0.00    -0.278 NA
ATOM     12  C   UNL d   1      18.767  17.753  14.664  0.00  0.00     0.123 A 
ATOM     13  H   UNL d   1      20.490  17.618  13.643  0.00  0.00     0.128 HD
ATOM     14  C   UNL d   1      17.436  18.030  14.658  0.00  0.00     0.153 A 
ATOM     15  C   UNL d   1      19.490  17.929  15.953  0.00  0.00     0.272 A 
ATOM     16  N   UNL d   1      16.753  17.988  13.439  0.00  0.00    -0.371 N 
ATOM     17  N   UNL d   1      16.741  18.396  15.783  0.00  0.00    -0.201 NA
ATOM     18  C   UNL d   1      17.388  17.435  12.235  0.00  0.00     0.142 C 
ATOM     19  H   UNL d   1      15.771  17.776  13.583  0.00  0.00     0.161 HD
ATOM     20  C   UNL d   1      17.391  18.549  16.890  0.00  0.00     0.181 A 
ATOM     21  N   UNL d   1      18.725  18.311  17.010  0.00  0.00    -0.297 N 
ATOM     22  H   UNL d   1      19.205  18.495  17.872  0.00  0.00     0.171 HD
ATOM     23  O   UNL d   1      20.708  17.782  16.040  0.00  0.00    -0.266 OA
BRANCH  20  24
ATOM     24  N   UNL d   1      16.746  18.964  18.007  0.00  0.00    -0.272 NA
ATOM     25  H   UNL d   1      15.998  18.384  18.358  0.00  0.00     0.127 HD
ATOM     26  H   UNL d   1      16.513  19.952  17.970  0.00  0.00     0.127 HD
ENDBRANCH  20  24
ENDBRANCH   9  10
ENDBRANCH   7   9
ENDBRANCH   1   7
BRANCH   4  27
ATOM     27  C17 <1> d   1      25.057  20.217  12.910  0.00  0.00     0.252 C 
ATOM     28  O   UNL d   1      25.968  20.832  12.368  0.00  0.00    -0.268 OA
ATOM     29  N   UNL d   1      24.944  20.154  14.277  0.00  0.00    -0.343 N 
ATOM     30  H   UNL d   1      25.560  20.735  14.834  0.00  0.00     0.163 HD
BRANCH  29  31
ATOM     31  CA  UNL d   1      23.897  19.430  15.024  0.00  0.00     0.183 C 
BRANCH  31  32
ATOM     32  CB  UNL d   1      24.491  18.320  15.901  0.00  0.00     0.046 C 
BRANCH  32  33
ATOM     33  CG  UNL d   1      25.831  18.681  16.559  0.00  0.00     0.112 C 
BRANCH  33  34
ATOM     34  CD  UNL d   1      25.670  18.906  18.044  0.00  0.00     0.139 C 
ATOM     35  OE2 UNL d   1      25.035  19.821  18.539  0.00  0.00    -0.650 OA
BRANCH  34  36
ATOM     36  OE1 UNL d   1      26.353  18.015  18.796  0.00  0.00    -0.776 OA
ATOM     37  HE1 UNL d   1      25.792  17.427  19.337  0.00  0.00     0.167 HD
ENDBRANCH  34  36
ENDBRANCH  33  34
ENDBRANCH  32  33
ENDBRANCH  31  32
BRANCH  31  38
ATOM     38  C   UNL d   1      22.830  20.279  15.762  0.00  0.00     0.163 C 
ATOM     39  OXT UNL d   1      22.225  21.187  15.199  0.00  0.00    -0.648 OA
BRANCH  38  40
ATOM     40  O   UNL d   1      22.509  19.911  17.015  0.00  0.00    -0.775 OA
ATOM     41  H   UNL d   1      23.296  19.738  17.588  0.00  0.00     0.167 HD
ENDBRANCH  38  40
ENDBRANCH  31  38
ENDBRANCH  29  31
ENDBRANCH   4  27
TORSDOF 12
ENDMDL
MODEL 9
REMARK VINA RESULT:      -8.4      3.489     10.551
REMARK  12 active torsions:
REMARK  status: ('A' for Active; 'I' for Inactive)
REMARK    1  A    between atoms: O_3  and  C_31 
REMARK    2  A    between atoms: OE1_5  and  CD_32 
REMARK    3  A    between atoms: N_9  and  C_16 
REMARK    4  A    between atoms: N_9  and  C_20 
REMARK    5  A    between atoms: CA_21  and  N_12 
REMARK       I    between atoms: N_12  and  C17_30 
REMARK    6  A    between atoms: N_13  and  C_23 
REMARK    7  A    between atoms: C_14  and  C_16 
REMARK    8  A    between atoms: CA_21  and  CB_22 
REMARK    9  A    between atoms: CA_21  and  C_31 
REMARK   10  A    between atoms: CB_22  and  CG_29 
REMARK   11  A    between atoms: C_26  and  C17_30 
REMARK   12  A    between atoms: CG_29  and  CD_32 
ROOT
ATOM      1  C   UNL d   1      21.095  21.583   8.498  0.00  0.00     0.028 A 
ATOM      2  C   UNL d   1      20.365  22.627   7.914  0.00  0.00     0.030 A 
ATOM      3  C   UNL d   1      21.696  20.648   7.646  0.00  0.00     0.030 A 
ATOM      4  C   UNL d   1      20.837  21.798   5.692  0.00  0.00     0.032 A 
ATOM      5  C   UNL d   1      20.252  22.751   6.523  0.00  0.00     0.019 A 
ATOM      6  C   UNL d   1      21.578  20.753   6.256  0.00  0.00     0.019 A 
ENDROOT
BRANCH   1   7
ATOM      7  N   UNL d   1      21.139  21.351   9.870  0.00  0.00    -0.388 N 
ATOM      8  H   UNL d   1      20.632  22.049  10.418  0.00  0.00     0.159 HD
BRANCH   7   9
ATOM      9  C   UNL d   1      20.979  19.999  10.400  0.00  0.00     0.141 C 
BRANCH   9  10
ATOM     10  C   UNL d   1      20.186  19.995  11.713  0.00  0.00     0.096 C 
ATOM     11  N   UNL d   1      20.759  19.045  12.693  0.00  0.00    -0.278 NA
ATOM     12  C   UNL d   1      19.988  18.825  13.848  0.00  0.00     0.123 A 
ATOM     13  H   UNL d   1      21.740  19.183  12.939  0.00  0.00     0.128 HD
ATOM     14  C   UNL d   1      18.652  19.067  13.926  0.00  0.00     0.153 A 
ATOM     15  C   UNL d   1      20.671  18.391  15.098  0.00  0.00     0.272 A 
ATOM     16  N   UNL d   1      18.004  19.588  12.802  0.00  0.00    -0.371 N 
ATOM     17  N   UNL d   1      17.919  18.871  15.069  0.00  0.00    -0.201 NA
ATOM     18  C   UNL d   1      18.683  19.654  11.500  0.00  0.00     0.142 C 
ATOM     19  H   UNL d   1      17.023  19.328  12.799  0.00  0.00     0.161 HD
ATOM     20  C   UNL d   1      18.535  18.501  16.143  0.00  0.00     0.181 A 
ATOM     21  N   UNL d   1      19.870  18.241  16.186  0.00  0.00    -0.297 N 
ATOM     22  H   UNL d   1      20.322  18.010  17.051  0.00  0.00     0.171 HD
ATOM     23  O   UNL d   1      21.888  18.227  15.148  0.00  0.00    -0.266 OA
BRANCH  20  24
ATOM     24  N   UNL d   1      17.851  18.352  17.304  0.00  0.00    -0.272 NA
ATOM     25  H   UNL d   1      16.956  18.812  17.382  0.00  0.00     0.127 HD
ATOM     26  H   UNL d   1      18.446  18.476  18.117  0.00  0.00     0.127 HD
ENDBRANCH  20  24
ENDBRANCH   9  10
ENDBRANCH   7   9
ENDBRANCH   1   7
BRANCH   4  27
ATOM     27  C17 <1> d   1      20.632  21.804   4.221  0.00  0.00     0.252 C 
ATOM     28  O   UNL d   1      19.583  21.407   3.727  0.00  0.00    -0.268 OA
ATOM     29  N   UNL d   1      21.590  22.436   3.467  0.00  0.00    -0.343 N 
ATOM     30  H   UNL d   1      21.359  22.684   2.512  0.00  0.00     0.163 HD
BRANCH  29  31
ATOM     31  CA  UNL d   1      22.888  22.935   3.963  0.00  0.00     0.183 C 
BRANCH  31  32
ATOM     32  CB  UNL d   1      24.065  22.201   3.308  0.00  0.00     0.046 C 
BRANCH  32  33
ATOM     33  CG  UNL d   1      24.707  21.119   4.191  0.00  0.00     0.112 C 
BRANCH  33  34
ATOM     34  CD  UNL d   1      25.485  21.734   5.332  0.00  0.00     0.139 C 
ATOM     35  OE2 UNL d   1      25.261  21.525   6.512  0.00  0.00    -0.650 OA
BRANCH  34  36
ATOM     36  OE1 UNL d   1      26.440  22.598   4.922  0.00  0.00    -0.776 OA
ATOM     37  HE1 UNL d   1      26.414  22.809   3.969  0.00  0.00     0.167 HD
ENDBRANCH  34  36
ENDBRANCH  33  34
ENDBRANCH  32  33
ENDBRANCH  31  32
BRANCH  31  38
ATOM     38  C   UNL d   1      23.088  24.472   4.019  0.00  0.00     0.163 C 
ATOM     39  OXT UNL d   1      22.827  25.191   3.058  0.00  0.00    -0.648 OA
BRANCH  38  40
ATOM     40  O   UNL d   1      23.451  25.003   5.199  0.00  0.00    -0.775 OA
ATOM     41  H   UNL d   1      23.635  25.973   5.154  0.00  0.00     0.167 HD
ENDBRANCH  38  40
ENDBRANCH  31  38
ENDBRANCH  29  31
ENDBRANCH   4  27
TORSDOF 12
ENDMDL
