@<TRIPOS>MOLECULE
135444742
 55 57 0 0 0
SMALL
GASTEIGER

@<TRIPOS>ATOM
      1 O           3.8092    4.0060   -3.6041 O.2     1  UNL11      -0.2657
      2 O          10.0795    3.5538   -3.3492 O.2     1  UNL11      -0.2702
      3 O           6.1353    2.2736   -4.6270 O.3     1  UNL11      -0.4793
      4 OXT         6.6878    0.1049   -4.6133 O.2     1  UNL11      -0.2489
      5 OE1         9.7134   -2.1314   -7.0216 O.3     1  UNL11      -0.4806
      6 OE2         8.2221   -2.4173   -8.6842 O.2     1  UNL11      -0.2510
      7 N           3.6827    1.2583   -2.9651 N.pl3   1  UNL11      -0.3311
      8 N           2.9853   -0.4074   -5.1189 N.pl3   1  UNL11      -0.3256
      9 N           5.2520    0.1157   -0.7490 N.pl3   1  UNL11      -0.3420
     10 N           2.6462    1.4883   -6.5166 N.pl3   1  UNL11      -0.1994
     11 N           3.0978    3.6378   -5.7283 N.am    1  UNL11      -0.2937
     12 N           9.2030    2.4670   -5.1395 N.am    1  UNL11      -0.2983
     13 N           2.4864    3.2906   -7.9280 N.pl3   1  UNL11      -0.3289
     14 C           4.1342   -0.1525   -2.9443 C.3     1  UNL11       0.0517
     15 C           3.1456   -1.0090   -3.7883 C.3     1  UNL11       0.0303
     16 C           4.2865   -0.6741   -1.5097 C.3     1  UNL11       0.0289
     17 C           3.3229    1.7620   -4.2280 C.3     1  UNL11       0.1330
     18 C           2.9703    0.9813   -5.2844 C.3     1  UNL11       0.1487
     19 C           3.4189    3.2285   -4.4720 C.2     1  UNL11       0.2755
     20 C           6.3175    0.7420   -1.3906 C.3     1  UNL11       0.0272
     21 CA          8.2086    1.5916   -5.7914 C.3     1  UNL11       0.1209
     22 CB          8.8679    0.3586   -6.4242 C.3     1  UNL11      -0.0140
     23 C           2.7442    2.7626   -6.7067 C.3     1  UNL11       0.1948
     24 C           6.8965    1.9368   -0.9434 C.3     1  UNL11      -0.0401
     25 C           6.7455    0.2289   -2.6220 C.3     1  UNL11      -0.0401
     26 C           8.2806    2.0806   -2.9199 C.3     1  UNL11       0.0368
     27 C           7.8846    2.5938   -1.6861 C.3     1  UNL11      -0.0479
     28 C           7.7219    0.8833   -3.3802 C.3     1  UNL11      -0.0479
     29 CG          7.8889   -0.5874   -7.1355 C.3     1  UNL11       0.0470
     30 C17         9.2219    2.8078   -3.8087 C.2     1  <1>         0.2447
     31 C           6.9265    1.2494   -4.9913 C.2     1  UNL11       0.3253
     32 CD          8.6068   -1.7834   -7.7170 C.2     1  UNL11       0.3048
     33 H           5.1233   -0.1918   -3.4224 H       1  UNL11       0.0528
     34 H           2.1612   -1.0621   -3.3085 H       1  UNL11       0.0480
     35 H           3.5252   -2.0303   -3.8966 H       1  UNL11       0.0480
     36 H           3.3078   -0.6425   -1.0184 H       1  UNL11       0.0480
     37 H           4.6213   -1.7191   -1.5524 H       1  UNL11       0.0480
     38 H           4.2683    1.9290   -2.4660 H       1  UNL11       0.1467
     39 H           2.3282   -0.8523   -5.7511 H       1  UNL11       0.1476
     40 H           4.8068    0.6991   -0.0367 H       1  UNL11       0.1461
     41 HA          7.8381    2.2235   -6.6112 H       1  UNL11       0.0614
     42 H           3.2173    4.6138   -5.9277 H       1  UNL11       0.1716
     43 HB1         9.6120    0.7133   -7.1520 H       1  UNL11       0.0294
     44 HB2         9.4294   -0.2087   -5.6735 H       1  UNL11       0.0294
     45 H           6.5938    2.3836   -0.0017 H       1  UNL11       0.0636
     46 H           6.2885   -0.6749   -3.0207 H       1  UNL11       0.0636
     47 H           9.9899    2.7435   -5.7137 H       1  UNL11       0.1498
     48 H           8.3277    3.4981   -1.2810 H       1  UNL11       0.0626
     49 H           8.0105    0.4732   -4.3459 H       1  UNL11       0.0626
     50 HG1         7.1465   -0.9459   -6.4156 H       1  UNL11       0.0378
     51 HG2         7.3714   -0.0778   -7.9565 H       1  UNL11       0.0378
     52 H           2.0940    4.2205   -7.9626 H       1  UNL11       0.1451
     53 H           2.0202    2.6290   -8.5406 H       1  UNL11       0.1451
     54 H           6.5333    3.1609   -4.8059 H       1  UNL11       0.2951
     55 HE1         9.9086   -1.5552   -6.2578 H       1  UNL11       0.2951
@<TRIPOS>BOND
     1     1    19    2
     2     2    30    2
     3     3    31    1
     4     3    54    1
     5     4    31    2
     6     5    32    1
     7     5    55    1
     8     6    32    2
     9     7    14    1
    10     7    17    1
    11     7    38    1
    12     8    15    1
    13     8    18    1
    14     8    39    1
    15     9    16    1
    16     9    20    1
    17     9    40    1
    18    10    18   ar
    19    10    23   ar
    20    11    19   ar
    21    11    23   ar
    22    11    42    1
    23    21    12    1
    24    12    30   am
    25    12    47    1
    26    13    23    1
    27    13    52    1
    28    13    53    1
    29    14    15    1
    30    14    16    1
    31    14    33    1
    32    15    34    1
    33    15    35    1
    34    16    36    1
    35    16    37    1
    36    17    18   ar
    37    17    19   ar
    38    20    24   ar
    39    20    25   ar
    40    21    22    1
    41    21    31    1
    42    21    41    1
    43    22    29    1
    44    22    43    1
    45    22    44    1
    46    24    27   ar
    47    24    45    1
    48    25    28   ar
    49    25    46    1
    50    26    27   ar
    51    26    28   ar
    52    26    30    1
    53    27    48    1
    54    28    49    1
    55    29    32    1
    56    29    50    1
    57    29    51    1
