MODEL 1
REMARK VINA RESULT:      -6.1      0.000      0.000
REMARK  3 active torsions:
REMARK  status: ('A' for Active; 'I' for Inactive)
REMARK    1  A    between atoms: C_1  and  O_3 
REMARK    2  A    between atoms: C_1  and  C_4 
REMARK    3  A    between atoms: C_5  and  O_10 
ROOT
ATOM      1  C   UNL d   1       6.964 -10.622 -26.203  0.00  0.00     0.070 A 
ATOM      2  C   UNL d   1       6.198 -11.616 -25.581  0.00  0.00     0.082 A 
ATOM      3  C   UNL d   1       6.523 -12.064 -24.301  0.00  0.00     0.037 A 
ATOM      4  C   UNL d   1       7.623 -11.527 -23.632  0.00  0.00     0.003 A 
ATOM      5  C   UNL d   1       8.399 -10.543 -24.242  0.00  0.00     0.001 A 
ATOM      6  C   UNL d   1       8.071 -10.091 -25.524  0.00  0.00     0.021 A 
ENDROOT
BRANCH   1   7
ATOM      7  C   UNL d   1       6.675 -10.082 -27.555  0.00  0.00     0.178 C 
ATOM      8  O   UNL d   1       5.626 -10.187 -28.163  0.00  0.00    -0.646 OA
BRANCH   7   9
ATOM      9  O   UNL d   1       7.727  -9.432 -28.099  0.00  0.00    -0.773 OA
ATOM     10  H   UNL d   1       8.047 -10.064 -28.781  0.00  0.00     0.167 HD
ENDBRANCH   7   9
ENDBRANCH   1   7
BRANCH   2  11
ATOM     11  O   UNL d   1       5.106 -12.209 -26.158  0.00  0.00    -0.360 OA
ATOM     12  H   UNL d   1       5.389 -12.559 -27.029  0.00  0.00     0.217 HD
ENDBRANCH   2  11
TORSDOF 3
ENDMDL
MODEL 2
REMARK VINA RESULT:      -6.0      1.274      2.295
REMARK  3 active torsions:
REMARK  status: ('A' for Active; 'I' for Inactive)
REMARK    1  A    between atoms: C_1  and  O_3 
REMARK    2  A    between atoms: C_1  and  C_4 
REMARK    3  A    between atoms: C_5  and  O_10 
ROOT
ATOM      1  C   UNL d   1       7.003 -11.497 -26.411  0.00  0.00     0.070 A 
ATOM      2  C   UNL d   1       7.985 -10.786 -25.709  0.00  0.00     0.082 A 
ATOM      3  C   UNL d   1       8.092 -10.907 -24.324  0.00  0.00     0.037 A 
ATOM      4  C   UNL d   1       7.214 -11.735 -23.625  0.00  0.00     0.003 A 
ATOM      5  C   UNL d   1       6.227 -12.442 -24.310  0.00  0.00     0.001 A 
ATOM      6  C   UNL d   1       6.122 -12.324 -25.699  0.00  0.00     0.021 A 
ENDROOT
BRANCH   1   7
ATOM      7  C   UNL d   1       6.834 -11.434 -27.885  0.00  0.00     0.178 C 
ATOM      8  O   UNL d   1       5.797 -11.604 -28.498  0.00  0.00    -0.646 OA
BRANCH   7   9
ATOM      9  O   UNL d   1       7.986 -11.165 -28.536  0.00  0.00    -0.773 OA
ATOM     10  H   UNL d   1       8.673 -11.428 -27.884  0.00  0.00     0.167 HD
ENDBRANCH   7   9
ENDBRANCH   1   7
BRANCH   2  11
ATOM     11  O   UNL d   1       8.887  -9.943 -26.303  0.00  0.00    -0.360 OA
ATOM     12  H   UNL d   1       9.392 -10.470 -26.958  0.00  0.00     0.217 HD
ENDBRANCH   2  11
TORSDOF 3
ENDMDL
MODEL 3
REMARK VINA RESULT:      -6.0      1.703      3.175
REMARK  3 active torsions:
REMARK  status: ('A' for Active; 'I' for Inactive)
REMARK    1  A    between atoms: C_1  and  O_3 
REMARK    2  A    between atoms: C_1  and  C_4 
REMARK    3  A    between atoms: C_5  and  O_10 
ROOT
ATOM      1  C   UNL d   1       7.026 -11.040 -25.220  0.00  0.00     0.070 A 
ATOM      2  C   UNL d   1       7.990 -10.960 -24.206  0.00  0.00     0.082 A 
ATOM      3  C   UNL d   1       8.967  -9.966 -24.235  0.00  0.00     0.037 A 
ATOM      4  C   UNL d   1       8.996  -9.044 -25.282  0.00  0.00     0.003 A 
ATOM      5  C   UNL d   1       8.048  -9.118 -26.302  0.00  0.00     0.001 A 
ATOM      6  C   UNL d   1       7.065 -10.112 -26.271  0.00  0.00     0.021 A 
ENDROOT
BRANCH   1   7
ATOM      7  C   UNL d   1       5.946 -12.057 -25.254  0.00  0.00     0.178 C 
ATOM      8  O   UNL d   1       5.688 -12.863 -24.379  0.00  0.00    -0.646 OA
BRANCH   7   9
ATOM      9  O   UNL d   1       5.229 -12.027 -26.399  0.00  0.00    -0.773 OA
ATOM     10  H   UNL d   1       5.865 -12.374 -27.064  0.00  0.00     0.167 HD
ENDBRANCH   7   9
ENDBRANCH   1   7
BRANCH   2  11
ATOM     11  O   UNL d   1       8.049 -11.820 -23.142  0.00  0.00    -0.360 OA
ATOM     12  H   UNL d   1       8.939 -11.727 -22.740  0.00  0.00     0.217 HD
ENDBRANCH   2  11
TORSDOF 3
ENDMDL
MODEL 4
REMARK VINA RESULT:      -6.0      2.742      4.147
REMARK  3 active torsions:
REMARK  status: ('A' for Active; 'I' for Inactive)
REMARK    1  A    between atoms: C_1  and  O_3 
REMARK    2  A    between atoms: C_1  and  C_4 
REMARK    3  A    between atoms: C_5  and  O_10 
ROOT
ATOM      1  C   UNL d   1       7.432  -9.702 -24.631  0.00  0.00     0.070 A 
ATOM      2  C   UNL d   1       8.015  -9.986 -25.873  0.00  0.00     0.082 A 
ATOM      3  C   UNL d   1       7.488  -9.440 -27.043  0.00  0.00     0.037 A 
ATOM      4  C   UNL d   1       6.368  -8.610 -26.985  0.00  0.00     0.003 A 
ATOM      5  C   UNL d   1       5.774  -8.326 -25.757  0.00  0.00     0.001 A 
ATOM      6  C   UNL d   1       6.304  -8.869 -24.583  0.00  0.00     0.021 A 
ENDROOT
BRANCH   1   7
ATOM      7  C   UNL d   1       7.941 -10.230 -23.341  0.00  0.00     0.178 C 
ATOM      8  O   UNL d   1       8.314  -9.570 -22.389  0.00  0.00    -0.646 OA
BRANCH   7   9
ATOM      9  O   UNL d   1       7.968 -11.580 -23.298  0.00  0.00    -0.773 OA
ATOM     10  H   UNL d   1       7.603 -11.779 -22.407  0.00  0.00     0.167 HD
ENDBRANCH   7   9
ENDBRANCH   1   7
BRANCH   2  11
ATOM     11  O   UNL d   1       9.109 -10.793 -26.035  0.00  0.00    -0.360 OA
ATOM     12  H   UNL d   1       9.649 -10.720 -25.220  0.00  0.00     0.217 HD
ENDBRANCH   2  11
TORSDOF 3
ENDMDL
MODEL 5
REMARK VINA RESULT:      -6.0      1.438      3.043
REMARK  3 active torsions:
REMARK  status: ('A' for Active; 'I' for Inactive)
REMARK    1  A    between atoms: C_1  and  O_3 
REMARK    2  A    between atoms: C_1  and  C_4 
REMARK    3  A    between atoms: C_5  and  O_10 
ROOT
ATOM      1  C   UNL d   1       7.090 -10.964 -24.897  0.00  0.00     0.070 A 
ATOM      2  C   UNL d   1       8.006 -10.466 -25.833  0.00  0.00     0.082 A 
ATOM      3  C   UNL d   1       9.004  -9.574 -25.441  0.00  0.00     0.037 A 
ATOM      4  C   UNL d   1       9.092  -9.164 -24.110  0.00  0.00     0.003 A 
ATOM      5  C   UNL d   1       8.181  -9.645 -23.171  0.00  0.00     0.001 A 
ATOM      6  C   UNL d   1       7.183 -10.543 -23.563  0.00  0.00     0.021 A 
ENDROOT
BRANCH   1   7
ATOM      7  C   UNL d   1       6.010 -11.926 -25.231  0.00  0.00     0.178 C 
ATOM      8  O   UNL d   1       5.395 -11.984 -26.280  0.00  0.00    -0.646 OA
BRANCH   7   9
ATOM      9  O   UNL d   1       5.738 -12.783 -24.223  0.00  0.00    -0.773 OA
ATOM     10  H   UNL d   1       4.886 -12.440 -23.868  0.00  0.00     0.167 HD
ENDBRANCH   7   9
ENDBRANCH   1   7
BRANCH   2  11
ATOM     11  O   UNL d   1       7.998 -10.802 -27.160  0.00  0.00    -0.360 OA
ATOM     12  H   UNL d   1       7.061 -10.829 -27.450  0.00  0.00     0.217 HD
ENDBRANCH   2  11
TORSDOF 3
ENDMDL
MODEL 6
REMARK VINA RESULT:      -5.9      2.127      3.347
REMARK  3 active torsions:
REMARK  status: ('A' for Active; 'I' for Inactive)
REMARK    1  A    between atoms: C_1  and  O_3 
REMARK    2  A    between atoms: C_1  and  C_4 
REMARK    3  A    between atoms: C_5  and  O_10 
ROOT
ATOM      1  C   UNL d   1       8.232 -10.258 -24.857  0.00  0.00     0.070 A 
ATOM      2  C   UNL d   1       7.723 -10.542 -26.131  0.00  0.00     0.082 A 
ATOM      3  C   UNL d   1       6.757 -11.533 -26.302  0.00  0.00     0.037 A 
ATOM      4  C   UNL d   1       6.293 -12.255 -25.202  0.00  0.00     0.003 A 
ATOM      5  C   UNL d   1       6.797 -11.987 -23.930  0.00  0.00     0.001 A 
ATOM      6  C   UNL d   1       7.763 -10.992 -23.758  0.00  0.00     0.021 A 
ENDROOT
BRANCH   1   7
ATOM      7  C   UNL d   1       9.250  -9.211 -24.590  0.00  0.00     0.178 C 
ATOM      8  O   UNL d   1      10.171  -8.898 -25.321  0.00  0.00    -0.646 OA
BRANCH   7   9
ATOM      9  O   UNL d   1       9.073  -8.596 -23.400  0.00  0.00    -0.773 OA
ATOM     10  H   UNL d   1       8.104  -8.430 -23.381  0.00  0.00     0.167 HD
ENDBRANCH   7   9
ENDBRANCH   1   7
BRANCH   2  11
ATOM     11  O   UNL d   1       8.119  -9.896 -27.272  0.00  0.00    -0.360 OA
ATOM     12  H   UNL d   1       8.986 -10.271 -27.535  0.00  0.00     0.217 HD
ENDBRANCH   2  11
TORSDOF 3
ENDMDL
MODEL 7
REMARK VINA RESULT:      -5.9      0.934      2.651
REMARK  3 active torsions:
REMARK  status: ('A' for Active; 'I' for Inactive)
REMARK    1  A    between atoms: C_1  and  O_3 
REMARK    2  A    between atoms: C_1  and  C_4 
REMARK    3  A    between atoms: C_5  and  O_10 
ROOT
ATOM      1  C   UNL d   1       6.853 -10.488 -25.978  0.00  0.00     0.070 A 
ATOM      2  C   UNL d   1       7.857  -9.585 -26.352  0.00  0.00     0.082 A 
ATOM      3  C   UNL d   1       8.798  -9.147 -25.421  0.00  0.00     0.037 A 
ATOM      4  C   UNL d   1       8.742  -9.602 -24.103  0.00  0.00     0.003 A 
ATOM      5  C   UNL d   1       7.743 -10.493 -23.716  0.00  0.00     0.001 A 
ATOM      6  C   UNL d   1       6.802 -10.936 -24.650  0.00  0.00     0.021 A 
ENDROOT
BRANCH   1   7
ATOM      7  C   UNL d   1       5.825 -11.012 -26.911  0.00  0.00     0.178 C 
ATOM      8  O   UNL d   1       5.543 -10.555 -28.003  0.00  0.00    -0.646 OA
BRANCH   7   9
ATOM      9  O   UNL d   1       5.180 -12.097 -26.429  0.00  0.00    -0.773 OA
ATOM     10  H   UNL d   1       4.271 -11.758 -26.268  0.00  0.00     0.167 HD
ENDBRANCH   7   9
ENDBRANCH   1   7
BRANCH   2  11
ATOM     11  O   UNL d   1       7.992  -9.077 -27.617  0.00  0.00    -0.360 OA
ATOM     12  H   UNL d   1       7.101  -9.074 -28.028  0.00  0.00     0.217 HD
ENDBRANCH   2  11
TORSDOF 3
ENDMDL
MODEL 8
REMARK VINA RESULT:      -5.8      1.681      3.341
REMARK  3 active torsions:
REMARK  status: ('A' for Active; 'I' for Inactive)
REMARK    1  A    between atoms: C_1  and  O_3 
REMARK    2  A    between atoms: C_1  and  C_4 
REMARK    3  A    between atoms: C_5  and  O_10 
ROOT
ATOM      1  C   UNL d   1       6.111 -10.913 -25.808  0.00  0.00     0.070 A 
ATOM      2  C   UNL d   1       5.800 -10.316 -27.037  0.00  0.00     0.082 A 
ATOM      3  C   UNL d   1       5.813  -8.929 -27.173  0.00  0.00     0.037 A 
ATOM      4  C   UNL d   1       6.129  -8.122 -26.080  0.00  0.00     0.003 A 
ATOM      5  C   UNL d   1       6.432  -8.702 -24.850  0.00  0.00     0.001 A 
ATOM      6  C   UNL d   1       6.424 -10.094 -24.713  0.00  0.00     0.021 A 
ENDROOT
BRANCH   1   7
ATOM      7  C   UNL d   1       6.134 -12.381 -25.586  0.00  0.00     0.178 C 
ATOM      8  O   UNL d   1       6.512 -13.223 -26.378  0.00  0.00    -0.646 OA
BRANCH   7   9
ATOM      9  O   UNL d   1       5.670 -12.736 -24.368  0.00  0.00    -0.773 OA
ATOM     10  H   UNL d   1       6.470 -13.100 -23.927  0.00  0.00     0.167 HD
ENDBRANCH   7   9
ENDBRANCH   1   7
BRANCH   2  11
ATOM     11  O   UNL d   1       5.470 -11.020 -28.164  0.00  0.00    -0.360 OA
ATOM     12  H   UNL d   1       5.385 -11.963 -27.906  0.00  0.00     0.217 HD
ENDBRANCH   2  11
TORSDOF 3
ENDMDL
MODEL 9
REMARK VINA RESULT:      -5.8      2.222      3.200
REMARK  3 active torsions:
REMARK  status: ('A' for Active; 'I' for Inactive)
REMARK    1  A    between atoms: C_1  and  O_3 
REMARK    2  A    between atoms: C_1  and  C_4 
REMARK    3  A    between atoms: C_5  and  O_10 
ROOT
ATOM      1  C   UNL d   1       6.573  -9.974 -26.386  0.00  0.00     0.070 A 
ATOM      2  C   UNL d   1       7.305 -10.330 -27.526  0.00  0.00     0.082 A 
ATOM      3  C   UNL d   1       7.368 -11.661 -27.939  0.00  0.00     0.037 A 
ATOM      4  C   UNL d   1       6.705 -12.651 -27.213  0.00  0.00     0.003 A 
ATOM      5  C   UNL d   1       5.980 -12.311 -26.073  0.00  0.00     0.001 A 
ATOM      6  C   UNL d   1       5.913 -10.976 -25.660  0.00  0.00     0.021 A 
ENDROOT
BRANCH   1   7
ATOM      7  C   UNL d   1       6.444  -8.581 -25.890  0.00  0.00     0.178 C 
ATOM      8  O   UNL d   1       6.387  -8.234 -24.725  0.00  0.00    -0.646 OA
BRANCH   7   9
ATOM      9  O   UNL d   1       6.386  -7.670 -26.886  0.00  0.00    -0.773 OA
ATOM     10  H   UNL d   1       7.176  -7.889 -27.429  0.00  0.00     0.167 HD
ENDBRANCH   7   9
ENDBRANCH   1   7
BRANCH   2  11
ATOM     11  O   UNL d   1       7.994  -9.435 -28.299  0.00  0.00    -0.360 OA
ATOM     12  H   UNL d   1       7.699  -9.560 -29.226  0.00  0.00     0.217 HD
ENDBRANCH   2  11
TORSDOF 3
ENDMDL
