@<TRIPOS>MOLECULE
SAL
 16 16 0 0 0
SMALL
GASTEIGER

@<TRIPOS>ATOM
      1 C           0.9950    0.1203   -0.0291 C.2     1  UNL1        0.3404
      2 O           0.3182    1.1307   -0.0434 O.2     1  UNL1       -0.2450
      3 O           0.4153   -1.1000   -0.0165 O.3     1  UNL1       -0.4770
      4 C           2.4776    0.0556   -0.0162 C.ar    1  UNL1        0.1001
      5 C           3.2059   -1.1413   -0.0006 C.ar    1  UNL1        0.1308
      6 C           4.6003   -1.1207    0.0253 C.ar    1  UNL1       -0.0194
      7 C           5.2820    0.0961    0.0288 C.ar    1  UNL1       -0.0583
      8 C           4.5696    1.2940    0.0059 C.ar    1  UNL1       -0.0608
      9 C           3.1725    1.2753   -0.0157 C.ar    1  UNL1       -0.0442
     10 O           2.6299   -2.3829   -0.0107 O.3     1  UNL1       -0.5059
     11 H          -0.5451   -0.8859   -0.0119 H       1  UNL1        0.2954
     12 H           5.1544   -2.0558    0.0423 H       1  UNL1        0.0654
     13 H           6.3690    0.1076    0.0491 H       1  UNL1        0.0619
     14 H           5.1014    2.2428    0.0062 H       1  UNL1        0.0618
     15 H           2.6287    2.2182   -0.0302 H       1  UNL1        0.0627
     16 H           1.6581   -2.2547   -0.0371 H       1  UNL1        0.2922
@<TRIPOS>BOND
     1     1     2    2
     2     1     3    1
     3     1     4    1
     4     3    11    1
     5     4     5   ar
     6     4     9   ar
     7     5     6   ar
     8     5    10    1
     9     6     7   ar
    10     6    12    1
    11     7     8   ar
    12     7    13    1
    13     8     9   ar
    14     8    14    1
    15     9    15    1
    16    10    16    1
