REMARK  3 active torsions:
REMARK  status: ('A' for Active; 'I' for Inactive)
REMARK    1  A    between atoms: C_1  and  O_3 
REMARK    2  A    between atoms: C_1  and  C_4 
REMARK    3  A    between atoms: C_5  and  O_10 
ROOT
ATOM      1  C   UNL d   1       2.453  -0.095   0.078  0.00  0.00     0.070 A 
ATOM      2  C   UNL d   1       3.181  -1.292   0.093  0.00  0.00     0.082 A 
ATOM      3  C   UNL d   1       4.575  -1.271   0.119  0.00  0.00     0.037 A 
ATOM      4  C   UNL d   1       5.257  -0.055   0.123  0.00  0.00     0.003 A 
ATOM      5  C   UNL d   1       4.545   1.143   0.100  0.00  0.00     0.001 A 
ATOM      6  C   UNL d   1       3.148   1.125   0.079  0.00  0.00     0.021 A 
ENDROOT
BRANCH   1   7
ATOM      7  C   UNL d   1       0.971  -0.032   0.065  0.00  0.00     0.178 C 
ATOM      8  O   UNL d   1       0.293   0.980   0.052  0.00  0.00    -0.646 OA
BRANCH   7   9
ATOM      9  O   UNL d   1       0.391  -1.250   0.078  0.00  0.00    -0.773 OA
ATOM     10  H   UNL d   1      -0.570  -1.037   0.082  0.00  0.00     0.167 HD
ENDBRANCH   7   9
ENDBRANCH   1   7
BRANCH   2  11
ATOM     11  O   UNL d   1       2.605  -2.534   0.084  0.00  0.00    -0.360 OA
ATOM     12  H   UNL d   1       1.633  -2.405   0.057  0.00  0.00     0.217 HD
ENDBRANCH   2  11
TORSDOF 3
