@<TRIPOS>MOLECULE
SAL
 16 16 0 0 0
SMALL
GASTEIGER

@<TRIPOS>ATOM
      1 C           0.9706   -0.0316    0.0652 C.2     1  UNL1        0.3404
      2 O           0.2934    0.9798    0.0519 O.2     1  UNL1       -0.2450
      3 O           0.3909   -1.2502    0.0779 O.3     1  UNL1       -0.4770
      4 C           2.4528   -0.0945    0.0778 C.ar    1  UNL1        0.1001
      5 C           3.1813   -1.2919    0.0934 C.ar    1  UNL1        0.1308
      6 C           4.5755   -1.2713    0.1194 C.ar    1  UNL1       -0.0194
      7 C           5.2573   -0.0548    0.1233 C.ar    1  UNL1       -0.0583
      8 C           4.5450    1.1433    0.1000 C.ar    1  UNL1       -0.0608
      9 C           3.1482    1.1249    0.0785 C.ar    1  UNL1       -0.0442
     10 O           2.6051   -2.5335    0.0835 O.3     1  UNL1       -0.5059
     11 H          -0.5696   -1.0369    0.0822 H       1  UNL1        0.2954
     12 H           5.1296   -2.2064    0.1374 H       1  UNL1        0.0654
     13 H           6.3442   -0.0432    0.1439 H       1  UNL1        0.0619
     14 H           5.0767    2.0921    0.1003 H       1  UNL1        0.0618
     15 H           2.6039    2.0677    0.0639 H       1  UNL1        0.0627
     16 H           1.6334   -2.4052    0.0567 H       1  UNL1        0.2922
@<TRIPOS>BOND
     1     1     2    2
     2     1     3    1
     3     1     4    1
     4     3    11    1
     5     4     5   ar
     6     4     9   ar
     7     5     6   ar
     8     5    10    1
     9     6     7   ar
    10     6    12    1
    11     7     8   ar
    12     7    13    1
    13     8     9   ar
    14     8    14    1
    15     9    15    1
    16    10    16    1
