MODEL 1
REMARK VINA RESULT:      -6.1      0.000      0.000
REMARK  3 active torsions:
REMARK  status: ('A' for Active; 'I' for Inactive)
REMARK    1  A    between atoms: C_1  and  O_3 
REMARK    2  A    between atoms: C_1  and  C_4 
REMARK    3  A    between atoms: C_5  and  O_10 
ROOT
ATOM      1  C   UNL d   1       6.966 -10.623 -26.204  0.00  0.00     0.070 A 
ATOM      2  C   UNL d   1       6.197 -11.617 -25.582  0.00  0.00     0.082 A 
ATOM      3  C   UNL d   1       6.522 -12.064 -24.302  0.00  0.00     0.037 A 
ATOM      4  C   UNL d   1       7.621 -11.529 -23.631  0.00  0.00     0.003 A 
ATOM      5  C   UNL d   1       8.399 -10.545 -24.240  0.00  0.00     0.001 A 
ATOM      6  C   UNL d   1       8.072 -10.093 -25.522  0.00  0.00     0.021 A 
ENDROOT
BRANCH   1   7
ATOM      7  C   UNL d   1       6.678 -10.083 -27.555  0.00  0.00     0.178 C 
ATOM      8  O   UNL d   1       5.628 -10.189 -28.163  0.00  0.00    -0.646 OA
BRANCH   7   9
ATOM      9  O   UNL d   1       7.727  -9.433 -28.099  0.00  0.00    -0.773 OA
ATOM     10  H   UNL d   1       7.391  -8.514 -28.195  0.00  0.00     0.167 HD
ENDBRANCH   7   9
ENDBRANCH   1   7
BRANCH   2  11
ATOM     11  O   UNL d   1       5.107 -12.208 -26.160  0.00  0.00    -0.360 OA
ATOM     12  H   UNL d   1       5.428 -12.733 -26.924  0.00  0.00     0.217 HD
ENDBRANCH   2  11
TORSDOF 3
ENDMDL
MODEL 2
REMARK VINA RESULT:      -6.0      1.273      2.295
REMARK  3 active torsions:
REMARK  status: ('A' for Active; 'I' for Inactive)
REMARK    1  A    between atoms: C_1  and  O_3 
REMARK    2  A    between atoms: C_1  and  C_4 
REMARK    3  A    between atoms: C_5  and  O_10 
ROOT
ATOM      1  C   UNL d   1       7.001 -11.497 -26.411  0.00  0.00     0.070 A 
ATOM      2  C   UNL d   1       7.983 -10.783 -25.708  0.00  0.00     0.082 A 
ATOM      3  C   UNL d   1       8.088 -10.904 -24.323  0.00  0.00     0.037 A 
ATOM      4  C   UNL d   1       7.211 -11.734 -23.624  0.00  0.00     0.003 A 
ATOM      5  C   UNL d   1       6.227 -12.444 -24.309  0.00  0.00     0.001 A 
ATOM      6  C   UNL d   1       6.122 -12.327 -25.698  0.00  0.00     0.021 A 
ENDROOT
BRANCH   1   7
ATOM      7  C   UNL d   1       6.834 -11.436 -27.883  0.00  0.00     0.178 C 
ATOM      8  O   UNL d   1       5.796 -11.607 -28.498  0.00  0.00    -0.646 OA
BRANCH   7   9
ATOM      9  O   UNL d   1       7.985 -11.167 -28.535  0.00  0.00    -0.773 OA
ATOM     10  H   UNL d   1       7.763 -10.359 -29.049  0.00  0.00     0.167 HD
ENDBRANCH   7   9
ENDBRANCH   1   7
BRANCH   2  11
ATOM     11  O   UNL d   1       8.882  -9.941 -26.302  0.00  0.00    -0.360 OA
ATOM     12  H   UNL d   1       9.729 -10.024 -25.814  0.00  0.00     0.217 HD
ENDBRANCH   2  11
TORSDOF 3
ENDMDL
MODEL 3
REMARK VINA RESULT:      -6.0      1.703      3.174
REMARK  3 active torsions:
REMARK  status: ('A' for Active; 'I' for Inactive)
REMARK    1  A    between atoms: C_1  and  O_3 
REMARK    2  A    between atoms: C_1  and  C_4 
REMARK    3  A    between atoms: C_5  and  O_10 
ROOT
ATOM      1  C   UNL d   1       7.029 -11.042 -25.215  0.00  0.00     0.070 A 
ATOM      2  C   UNL d   1       7.990 -10.964 -24.197  0.00  0.00     0.082 A 
ATOM      3  C   UNL d   1       8.968  -9.971 -24.224  0.00  0.00     0.037 A 
ATOM      4  C   UNL d   1       9.001  -9.049 -25.270  0.00  0.00     0.003 A 
ATOM      5  C   UNL d   1       8.057  -9.120 -26.293  0.00  0.00     0.001 A 
ATOM      6  C   UNL d   1       7.073 -10.112 -26.265  0.00  0.00     0.021 A 
ENDROOT
BRANCH   1   7
ATOM      7  C   UNL d   1       5.948 -12.057 -25.251  0.00  0.00     0.178 C 
ATOM      8  O   UNL d   1       5.689 -12.865 -24.376  0.00  0.00    -0.646 OA
BRANCH   7   9
ATOM      9  O   UNL d   1       5.231 -12.026 -26.394  0.00  0.00    -0.773 OA
ATOM     10  H   UNL d   1       5.838 -11.575 -27.022  0.00  0.00     0.167 HD
ENDBRANCH   7   9
ENDBRANCH   1   7
BRANCH   2  11
ATOM     11  O   UNL d   1       8.044 -11.824 -23.134  0.00  0.00    -0.360 OA
ATOM     12  H   UNL d   1       8.975 -12.117 -23.041  0.00  0.00     0.217 HD
ENDBRANCH   2  11
TORSDOF 3
ENDMDL
MODEL 4
REMARK VINA RESULT:      -6.0      2.748      4.159
REMARK  3 active torsions:
REMARK  status: ('A' for Active; 'I' for Inactive)
REMARK    1  A    between atoms: C_1  and  O_3 
REMARK    2  A    between atoms: C_1  and  C_4 
REMARK    3  A    between atoms: C_5  and  O_10 
ROOT
ATOM      1  C   UNL d   1       7.419  -9.690 -24.618  0.00  0.00     0.070 A 
ATOM      2  C   UNL d   1       8.019  -9.952 -25.859  0.00  0.00     0.082 A 
ATOM      3  C   UNL d   1       7.496  -9.398 -27.027  0.00  0.00     0.037 A 
ATOM      4  C   UNL d   1       6.365  -8.583 -26.970  0.00  0.00     0.003 A 
ATOM      5  C   UNL d   1       5.755  -8.321 -25.745  0.00  0.00     0.001 A 
ATOM      6  C   UNL d   1       6.280  -8.871 -24.573  0.00  0.00     0.021 A 
ENDROOT
BRANCH   1   7
ATOM      7  C   UNL d   1       7.922 -10.227 -23.330  0.00  0.00     0.178 C 
ATOM      8  O   UNL d   1       8.303  -9.571 -22.377  0.00  0.00    -0.646 OA
BRANCH   7   9
ATOM      9  O   UNL d   1       7.935 -11.575 -23.289  0.00  0.00    -0.773 OA
ATOM     10  H   UNL d   1       7.153 -11.820 -23.833  0.00  0.00     0.167 HD
ENDBRANCH   7   9
ENDBRANCH   1   7
BRANCH   2  11
ATOM     11  O   UNL d   1       9.124 -10.743 -26.017  0.00  0.00    -0.360 OA
ATOM     12  H   UNL d   1       9.431 -10.999 -25.122  0.00  0.00     0.217 HD
ENDBRANCH   2  11
TORSDOF 3
ENDMDL
MODEL 5
REMARK VINA RESULT:      -6.0      1.950      3.611
REMARK  3 active torsions:
REMARK  status: ('A' for Active; 'I' for Inactive)
REMARK    1  A    between atoms: C_1  and  O_3 
REMARK    2  A    between atoms: C_1  and  C_4 
REMARK    3  A    between atoms: C_5  and  O_10 
ROOT
ATOM      1  C   UNL d   1       6.363 -10.679 -25.040  0.00  0.00     0.070 A 
ATOM      2  C   UNL d   1       5.899 -10.913 -26.343  0.00  0.00     0.082 A 
ATOM      3  C   UNL d   1       5.644  -9.846 -27.204  0.00  0.00     0.037 A 
ATOM      4  C   UNL d   1       5.842  -8.535 -26.772  0.00  0.00     0.003 A 
ATOM      5  C   UNL d   1       6.295  -8.288 -25.477  0.00  0.00     0.001 A 
ATOM      6  C   UNL d   1       6.556  -9.356 -24.614  0.00  0.00     0.021 A 
ENDROOT
BRANCH   1   7
ATOM      7  C   UNL d   1       6.672 -11.758 -24.071  0.00  0.00     0.178 C 
ATOM      8  O   UNL d   1       7.599 -11.771 -23.280  0.00  0.00    -0.646 OA
BRANCH   7   9
ATOM      9  O   UNL d   1       5.806 -12.790 -24.133  0.00  0.00    -0.773 OA
ATOM     10  H   UNL d   1       5.237 -12.649 -23.343  0.00  0.00     0.167 HD
ENDBRANCH   7   9
ENDBRANCH   1   7
BRANCH   2  11
ATOM     11  O   UNL d   1       5.668 -12.160 -26.856  0.00  0.00    -0.360 OA
ATOM     12  H   UNL d   1       5.290 -12.708 -26.136  0.00  0.00     0.217 HD
ENDBRANCH   2  11
TORSDOF 3
ENDMDL
MODEL 6
REMARK VINA RESULT:      -6.0      1.469      3.047
REMARK  3 active torsions:
REMARK  status: ('A' for Active; 'I' for Inactive)
REMARK    1  A    between atoms: C_1  and  O_3 
REMARK    2  A    between atoms: C_1  and  C_4 
REMARK    3  A    between atoms: C_5  and  O_10 
ROOT
ATOM      1  C   UNL d   1       7.103 -10.975 -24.885  0.00  0.00     0.070 A 
ATOM      2  C   UNL d   1       8.055 -10.526 -25.812  0.00  0.00     0.082 A 
ATOM      3  C   UNL d   1       9.058  -9.640 -25.421  0.00  0.00     0.037 A 
ATOM      4  C   UNL d   1       9.118  -9.188 -24.103  0.00  0.00     0.003 A 
ATOM      5  C   UNL d   1       8.174  -9.620 -23.173  0.00  0.00     0.001 A 
ATOM      6  C   UNL d   1       7.171 -10.511 -23.562  0.00  0.00     0.021 A 
ENDROOT
BRANCH   1   7
ATOM      7  C   UNL d   1       6.016 -11.928 -25.217  0.00  0.00     0.178 C 
ATOM      8  O   UNL d   1       5.386 -11.968 -26.259  0.00  0.00    -0.646 OA
BRANCH   7   9
ATOM      9  O   UNL d   1       5.753 -12.798 -24.219  0.00  0.00    -0.773 OA
ATOM     10  H   UNL d   1       6.494 -13.441 -24.287  0.00  0.00     0.167 HD
ENDBRANCH   7   9
ENDBRANCH   1   7
BRANCH   2  11
ATOM     11  O   UNL d   1       8.075 -10.907 -27.126  0.00  0.00    -0.360 OA
ATOM     12  H   UNL d   1       7.188 -10.720 -27.499  0.00  0.00     0.217 HD
ENDBRANCH   2  11
TORSDOF 3
ENDMDL
MODEL 7
REMARK VINA RESULT:      -5.9      0.865      2.628
REMARK  3 active torsions:
REMARK  status: ('A' for Active; 'I' for Inactive)
REMARK    1  A    between atoms: C_1  and  O_3 
REMARK    2  A    between atoms: C_1  and  C_4 
REMARK    3  A    between atoms: C_5  and  O_10 
ROOT
ATOM      1  C   UNL d   1       6.928 -10.598 -26.034  0.00  0.00     0.070 A 
ATOM      2  C   UNL d   1       7.887  -9.628 -26.361  0.00  0.00     0.082 A 
ATOM      3  C   UNL d   1       8.862  -9.259 -25.434  0.00  0.00     0.037 A 
ATOM      4  C   UNL d   1       8.886  -9.849 -24.171  0.00  0.00     0.003 A 
ATOM      5  C   UNL d   1       7.934 -10.809 -23.831  0.00  0.00     0.001 A 
ATOM      6  C   UNL d   1       6.960 -11.183 -24.759  0.00  0.00     0.021 A 
ENDROOT
BRANCH   1   7
ATOM      7  C   UNL d   1       5.870 -11.056 -26.967  0.00  0.00     0.178 C 
ATOM      8  O   UNL d   1       5.621 -10.582 -28.062  0.00  0.00    -0.646 OA
BRANCH   7   9
ATOM      9  O   UNL d   1       5.155 -12.094 -26.487  0.00  0.00    -0.773 OA
ATOM     10  H   UNL d   1       5.797 -12.838 -26.518  0.00  0.00     0.167 HD
ENDBRANCH   7   9
ENDBRANCH   1   7
BRANCH   2  11
ATOM     11  O   UNL d   1       7.941  -8.988 -27.569  0.00  0.00    -0.360 OA
ATOM     12  H   UNL d   1       7.743  -9.653 -28.262  0.00  0.00     0.217 HD
ENDBRANCH   2  11
TORSDOF 3
ENDMDL
MODEL 8
REMARK VINA RESULT:      -5.8      2.392      3.675
REMARK  3 active torsions:
REMARK  status: ('A' for Active; 'I' for Inactive)
REMARK    1  A    between atoms: C_1  and  O_3 
REMARK    2  A    between atoms: C_1  and  C_4 
REMARK    3  A    between atoms: C_5  and  O_10 
ROOT
ATOM      1  C   UNL d   1       7.906 -10.466 -24.469  0.00  0.00     0.070 A 
ATOM      2  C   UNL d   1       7.684 -10.457 -25.853  0.00  0.00     0.082 A 
ATOM      3  C   UNL d   1       6.801 -11.369 -26.432  0.00  0.00     0.037 A 
ATOM      4  C   UNL d   1       6.137 -12.302 -25.637  0.00  0.00     0.003 A 
ATOM      5  C   UNL d   1       6.354 -12.326 -24.261  0.00  0.00     0.001 A 
ATOM      6  C   UNL d   1       7.234 -11.411 -23.678  0.00  0.00     0.021 A 
ENDROOT
BRANCH   1   7
ATOM      7  C   UNL d   1       8.814  -9.521 -23.774  0.00  0.00     0.178 C 
ATOM      8  O   UNL d   1       9.650  -8.808 -24.301  0.00  0.00    -0.646 OA
BRANCH   7   9
ATOM      9  O   UNL d   1       8.645  -9.511 -22.436  0.00  0.00    -0.773 OA
ATOM     10  H   UNL d   1       9.565  -9.578 -22.097  0.00  0.00     0.167 HD
ENDBRANCH   7   9
ENDBRANCH   1   7
BRANCH   2  11
ATOM     11  O   UNL d   1       8.292  -9.587 -26.716  0.00  0.00    -0.360 OA
ATOM     12  H   UNL d   1       8.849 -10.118 -27.324  0.00  0.00     0.217 HD
ENDBRANCH   2  11
TORSDOF 3
ENDMDL
MODEL 9
REMARK VINA RESULT:      -5.8      2.218      3.195
REMARK  3 active torsions:
REMARK  status: ('A' for Active; 'I' for Inactive)
REMARK    1  A    between atoms: C_1  and  O_3 
REMARK    2  A    between atoms: C_1  and  C_4 
REMARK    3  A    between atoms: C_5  and  O_10 
ROOT
ATOM      1  C   UNL d   1       6.565  -9.984 -26.377  0.00  0.00     0.070 A 
ATOM      2  C   UNL d   1       7.293 -10.346 -27.520  0.00  0.00     0.082 A 
ATOM      3  C   UNL d   1       7.349 -11.678 -27.929  0.00  0.00     0.037 A 
ATOM      4  C   UNL d   1       6.684 -12.663 -27.199  0.00  0.00     0.003 A 
ATOM      5  C   UNL d   1       5.963 -12.318 -26.057  0.00  0.00     0.001 A 
ATOM      6  C   UNL d   1       5.903 -10.983 -25.648  0.00  0.00     0.021 A 
ENDROOT
BRANCH   1   7
ATOM      7  C   UNL d   1       6.444  -8.590 -25.885  0.00  0.00     0.178 C 
ATOM      8  O   UNL d   1       6.399  -8.239 -24.720  0.00  0.00    -0.646 OA
BRANCH   7   9
ATOM      9  O   UNL d   1       6.376  -7.682 -26.881  0.00  0.00    -0.773 OA
ATOM     10  H   UNL d   1       5.408  -7.539 -26.983  0.00  0.00     0.167 HD
ENDBRANCH   7   9
ENDBRANCH   1   7
BRANCH   2  11
ATOM     11  O   UNL d   1       7.983  -9.455 -28.296  0.00  0.00    -0.360 OA
ATOM     12  H   UNL d   1       8.441  -9.968 -28.995  0.00  0.00     0.217 HD
ENDBRANCH   2  11
TORSDOF 3
ENDMDL
