@<TRIPOS>MOLECULE
SAL
 16 16 0 0 0
SMALL
GASTEIGER

@<TRIPOS>ATOM
      1 C           1.0829    0.0204    0.0402 C.2     1  UNL1        0.3404
      2 O           0.4052    1.0317    0.0267 O.2     1  UNL1       -0.2450
      3 O           0.5031   -1.1983    0.0523 O.3     1  UNL1       -0.4770
      4 C           2.5648   -0.0424    0.0523 C.ar    1  UNL1        0.1001
      5 C           3.2937   -1.2395    0.0680 C.ar    1  UNL1        0.1308
      6 C           4.6880   -1.2181    0.0936 C.ar    1  UNL1       -0.0194
      7 C           5.3692   -0.0011    0.0975 C.ar    1  UNL1       -0.0583
      8 C           4.6565    1.1966    0.0746 C.ar    1  UNL1       -0.0608
      9 C           3.2596    1.1773    0.0532 C.ar    1  UNL1       -0.0442
     10 O           2.7181   -2.4812    0.0586 O.3     1  UNL1       -0.5059
     11 H          -0.4573   -0.9846    0.0561 H       1  UNL1        0.2954
     12 H           5.2425   -2.1530    0.1108 H       1  UNL1        0.0654
     13 H           6.4562    0.0109    0.1179 H       1  UNL1        0.0619
     14 H           5.1877    2.1454    0.0751 H       1  UNL1        0.0618
     15 H           2.7149    2.1199    0.0388 H       1  UNL1        0.0627
     16 H           1.7463   -2.3534    0.0325 H       1  UNL1        0.2922
@<TRIPOS>BOND
     1     1     2    2
     2     1     3    1
     3     1     4    1
     4     3    11    1
     5     4     5   ar
     6     4     9   ar
     7     5     6   ar
     8     5    10    1
     9     6     7   ar
    10     6    12    1
    11     7     8   ar
    12     7    13    1
    13     8     9   ar
    14     8    14    1
    15     9    15    1
    16    10    16    1
