REMARK  3 active torsions:
REMARK  status: ('A' for Active; 'I' for Inactive)
REMARK    1  A    between atoms: C_1  and  O_3 
REMARK    2  A    between atoms: C_1  and  C_4 
REMARK    3  A    between atoms: C_5  and  O_10 
ROOT
ATOM      1  C   UNL d   1       2.565  -0.042   0.052  0.00  0.00     0.070 A 
ATOM      2  C   UNL d   1       3.294  -1.240   0.068  0.00  0.00     0.082 A 
ATOM      3  C   UNL d   1       4.688  -1.218   0.094  0.00  0.00     0.037 A 
ATOM      4  C   UNL d   1       5.369  -0.001   0.098  0.00  0.00     0.003 A 
ATOM      5  C   UNL d   1       4.657   1.197   0.075  0.00  0.00     0.001 A 
ATOM      6  C   UNL d   1       3.260   1.177   0.053  0.00  0.00     0.021 A 
ENDROOT
BRANCH   1   7
ATOM      7  C   UNL d   1       1.083   0.020   0.040  0.00  0.00     0.178 C 
ATOM      8  O   UNL d   1       0.405   1.032   0.027  0.00  0.00    -0.646 OA
BRANCH   7   9
ATOM      9  O   UNL d   1       0.503  -1.198   0.052  0.00  0.00    -0.773 OA
ATOM     10  H   UNL d   1      -0.457  -0.985   0.056  0.00  0.00     0.167 HD
ENDBRANCH   7   9
ENDBRANCH   1   7
BRANCH   2  11
ATOM     11  O   UNL d   1       2.718  -2.481   0.059  0.00  0.00    -0.360 OA
ATOM     12  H   UNL d   1       1.746  -2.353   0.033  0.00  0.00     0.217 HD
ENDBRANCH   2  11
TORSDOF 3
