REMARK  2 active torsions:
REMARK  status: ('A' for Active; 'I' for Inactive)
REMARK    1  A    between atoms: C_1  and  O_3 
REMARK    2  A    between atoms: C_1  and  C_4 
ROOT
ATOM      1  C   UNL d   1       0.948   0.035   0.083  0.00  0.00     0.213 C 
ATOM      2  O   UNL d   1       0.296  -0.617   0.875  0.00  0.00    -0.644 OA
ENDROOT
BRANCH   1   3
ATOM      3  O   UNL d   1       0.387   0.805  -0.853  0.00  0.00    -0.771 OA
ATOM      4  H   UNL d   1      -0.579   0.707  -0.734  0.00  0.00     0.168 HD
ENDBRANCH   1   3
BRANCH   1   5
ATOM      5  C   UNL d   1       2.483   0.057   0.056  0.00  0.00     0.218 C 
ATOM      6  O   UNL d   1       3.095   0.732  -0.762  0.00  0.00    -0.286 OA
ATOM      7  C   UNL d   1       3.163  -0.794   1.088  0.00  0.00     0.103 C 
ENDBRANCH   1   5
TORSDOF 2
