@<TRIPOS>MOLECULE
PYR
 10 9 0 0 0
SMALL
GASTEIGER

@<TRIPOS>ATOM
      1 C           0.9481    0.0348    0.0831 C.2     1  UNL1        0.3723
      2 O           0.2958   -0.6168    0.8750 O.2     1  UNL1       -0.2419
      3 O           0.3868    0.8051   -0.8534 O.3     1  UNL1       -0.4751
      4 C           2.4835    0.0570    0.0562 C.2     1  UNL1        0.2360
      5 O           3.0952    0.7322   -0.7623 O.2     1  UNL1       -0.2854
      6 C           3.1633   -0.7944    1.0882 C.3     1  UNL1        0.0052
      7 H          -0.5790    0.7072   -0.7343 H       1  UNL1        0.2955
      8 H           2.8868   -0.4570    2.0902 H       1  UNL1        0.0311
      9 H           2.8868   -1.8422    0.9474 H       1  UNL1        0.0311
     10 H           4.2475   -0.7019    0.9761 H       1  UNL1        0.0311
@<TRIPOS>BOND
     1     1     2    2
     2     1     3    1
     3     1     4    1
     4     3     7    1
     5     4     5    2
     6     4     6    1
     7     6     8    1
     8     6     9    1
     9     6    10    1
