MODEL 1
REMARK VINA RESULT:      -9.1      0.000      0.000
REMARK  12 active torsions:
REMARK  status: ('A' for Active; 'I' for Inactive)
REMARK    1  A    between atoms: O_3  and  C_31 
REMARK    2  A    between atoms: OE1_5  and  CD_32 
REMARK    3  A    between atoms: N_9  and  C_16 
REMARK    4  A    between atoms: N_9  and  C_20 
REMARK    5  A    between atoms: CA_21  and  N_12 
REMARK       I    between atoms: N_12  and  C17_30 
REMARK    6  A    between atoms: N_13  and  C_23 
REMARK    7  A    between atoms: C_14  and  C_16 
REMARK    8  A    between atoms: CA_21  and  CB_22 
REMARK    9  A    between atoms: CA_21  and  C_31 
REMARK   10  A    between atoms: CB_22  and  CG_29 
REMARK   11  A    between atoms: C_26  and  C17_30 
REMARK   12  A    between atoms: CG_29  and  CD_32 
ROOT
ATOM      1  C   UNL d   1      20.774  19.770   8.829  0.00  0.00     0.028 A 
ATOM      2  C   UNL d   1      21.385  20.271   9.986  0.00  0.00     0.030 A 
ATOM      3  C   UNL d   1      19.377  19.664   8.820  0.00  0.00     0.030 A 
ATOM      4  C   UNL d   1      19.244  20.537  11.078  0.00  0.00     0.032 A 
ATOM      5  C   UNL d   1      20.631  20.673  11.096  0.00  0.00     0.019 A 
ATOM      6  C   UNL d   1      18.614  20.048   9.928  0.00  0.00     0.019 A 
ENDROOT
BRANCH   1   7
ATOM      7  N   UNL d   1      21.483  19.251   7.749  0.00  0.00    -0.388 N 
ATOM      8  H   UNL d   1      20.979  18.516   7.248  0.00  0.00     0.159 HD
BRANCH   7   9
ATOM      9  C   UNL d   1      22.223  20.135   6.852  0.00  0.00     0.141 C 
BRANCH   9  10
ATOM     10  C   UNL d   1      21.291  21.113   6.125  0.00  0.00     0.096 C 
ATOM     11  N   UNL d   1      20.686  20.494   4.922  0.00  0.00    -0.278 NA
ATOM     12  C   UNL d   1      19.977  21.371   4.081  0.00  0.00     0.123 A 
ATOM     13  H   UNL d   1      20.157  19.635   5.072  0.00  0.00     0.128 HD
ATOM     14  C   UNL d   1      20.158  22.718   4.062  0.00  0.00     0.153 A 
ATOM     15  C   UNL d   1      18.892  20.822   3.221  0.00  0.00     0.272 A 
ATOM     16  N   UNL d   1      21.089  23.276   4.945  0.00  0.00    -0.371 N 
ATOM     17  N   UNL d   1      19.440  23.561   3.253  0.00  0.00    -0.201 NA
ATOM     18  C   UNL d   1      22.014  22.426   5.705  0.00  0.00     0.142 C 
ATOM     19  H   UNL d   1      21.458  24.146   4.576  0.00  0.00     0.161 HD
ATOM     20  C   UNL d   1      18.499  23.063   2.521  0.00  0.00     0.181 A 
ATOM     21  N   UNL d   1      18.220  21.734   2.468  0.00  0.00    -0.297 N 
ATOM     22  H   UNL d   1      17.445  21.390   1.931  0.00  0.00     0.171 HD
ATOM     23  O   UNL d   1      18.597  19.628   3.232  0.00  0.00    -0.266 OA
BRANCH  20  24
ATOM     24  N   UNL d   1      17.732  23.874   1.753  0.00  0.00    -0.272 NA
ATOM     25  H   UNL d   1      17.172  24.572   2.222  0.00  0.00     0.127 HD
ATOM     26  H   UNL d   1      17.226  23.361   1.039  0.00  0.00     0.127 HD
ENDBRANCH  20  24
ENDBRANCH   9  10
ENDBRANCH   7   9
ENDBRANCH   1   7
BRANCH   4  27
ATOM     27  C17 <1> d   1      18.410  20.817  12.274  0.00  0.00     0.252 C 
ATOM     28  O   UNL d   1      17.905  21.920  12.450  0.00  0.00    -0.268 OA
ATOM     29  N   UNL d   1      18.087  19.743  13.067  0.00  0.00    -0.343 N 
ATOM     30  H   UNL d   1      17.324  19.848  13.724  0.00  0.00     0.163 HD
BRANCH  29  31
ATOM     31  CA  UNL d   1      18.647  18.382  12.947  0.00  0.00     0.183 C 
BRANCH  31  32
ATOM     32  CB  UNL d   1      19.339  17.938  14.243  0.00  0.00     0.046 C 
BRANCH  32  33
ATOM     33  CG  UNL d   1      19.032  18.823  15.460  0.00  0.00     0.112 C 
BRANCH  33  34
ATOM     34  CD  UNL d   1      17.927  18.229  16.304  0.00  0.00     0.139 C 
ATOM     35  OE2 UNL d   1      16.754  18.186  15.977  0.00  0.00    -0.650 OA
BRANCH  34  36
ATOM     36  OE1 UNL d   1      18.356  17.784  17.508  0.00  0.00    -0.776 OA
ATOM     37  HE1 UNL d   1      18.518  18.488  18.165  0.00  0.00     0.167 HD
ENDBRANCH  34  36
ENDBRANCH  33  34
ENDBRANCH  32  33
ENDBRANCH  31  32
BRANCH  31  38
ATOM     38  C   UNL d   1      17.736  17.285  12.341  0.00  0.00     0.163 C 
ATOM     39  OXT UNL d   1      18.200  16.262  11.844  0.00  0.00    -0.648 OA
BRANCH  38  40
ATOM     40  O   UNL d   1      16.407  17.442  12.479  0.00  0.00    -0.775 OA
ATOM     41  H   UNL d   1      16.159  18.096  13.177  0.00  0.00     0.167 HD
ENDBRANCH  38  40
ENDBRANCH  31  38
ENDBRANCH  29  31
ENDBRANCH   4  27
TORSDOF 12
ENDMDL
MODEL 2
REMARK VINA RESULT:      -8.5      1.681      2.820
REMARK  12 active torsions:
REMARK  status: ('A' for Active; 'I' for Inactive)
REMARK    1  A    between atoms: O_3  and  C_31 
REMARK    2  A    between atoms: OE1_5  and  CD_32 
REMARK    3  A    between atoms: N_9  and  C_16 
REMARK    4  A    between atoms: N_9  and  C_20 
REMARK    5  A    between atoms: CA_21  and  N_12 
REMARK       I    between atoms: N_12  and  C17_30 
REMARK    6  A    between atoms: N_13  and  C_23 
REMARK    7  A    between atoms: C_14  and  C_16 
REMARK    8  A    between atoms: CA_21  and  CB_22 
REMARK    9  A    between atoms: CA_21  and  C_31 
REMARK   10  A    between atoms: CB_22  and  CG_29 
REMARK   11  A    between atoms: C_26  and  C17_30 
REMARK   12  A    between atoms: CG_29  and  CD_32 
ROOT
ATOM      1  C   UNL d   1      21.847  19.344   8.622  0.00  0.00     0.028 A 
ATOM      2  C   UNL d   1      22.078  20.580   9.241  0.00  0.00     0.030 A 
ATOM      3  C   UNL d   1      21.582  18.240   9.443  0.00  0.00     0.030 A 
ATOM      4  C   UNL d   1      21.787  19.607  11.435  0.00  0.00     0.032 A 
ATOM      5  C   UNL d   1      22.029  20.721  10.633  0.00  0.00     0.019 A 
ATOM      6  C   UNL d   1      21.543  18.366  10.836  0.00  0.00     0.019 A 
ENDROOT
BRANCH   1   7
ATOM      7  N   UNL d   1      22.000  19.128   7.255  0.00  0.00    -0.388 N 
ATOM      8  H   UNL d   1      21.172  18.723   6.812  0.00  0.00     0.159 HD
BRANCH   7   9
ATOM      9  C   UNL d   1      22.654  20.128   6.414  0.00  0.00     0.141 C 
BRANCH   9  10
ATOM     10  C   UNL d   1      21.642  21.118   5.821  0.00  0.00     0.096 C 
ATOM     11  N   UNL d   1      20.897  20.520   4.689  0.00  0.00    -0.278 NA
ATOM     12  C   UNL d   1      20.092  21.411   3.955  0.00  0.00     0.123 A 
ATOM     13  H   UNL d   1      20.388  19.658   4.886  0.00  0.00     0.128 HD
ATOM     14  C   UNL d   1      20.272  22.758   3.938  0.00  0.00     0.153 A 
ATOM     15  C   UNL d   1      18.911  20.876   3.223  0.00  0.00     0.272 A 
ATOM     16  N   UNL d   1      21.303  23.302   4.713  0.00  0.00    -0.371 N 
ATOM     17  N   UNL d   1      19.463  23.615   3.236  0.00  0.00    -0.201 NA
ATOM     18  C   UNL d   1      22.312  22.439   5.341  0.00  0.00     0.142 C 
ATOM     19  H   UNL d   1      21.626  24.178   4.318  0.00  0.00     0.161 HD
ATOM     20  C   UNL d   1      18.440  23.129   2.615  0.00  0.00     0.181 A 
ATOM     21  N   UNL d   1      18.154  21.801   2.572  0.00  0.00    -0.297 N 
ATOM     22  H   UNL d   1      17.320  21.466   2.126  0.00  0.00     0.171 HD
ATOM     23  O   UNL d   1      18.617  19.683   3.248  0.00  0.00    -0.266 OA
BRANCH  20  24
ATOM     24  N   UNL d   1      17.588  23.953   1.959  0.00  0.00    -0.272 NA
ATOM     25  H   UNL d   1      17.930  24.417   1.129  0.00  0.00     0.127 HD
ATOM     26  H   UNL d   1      17.087  24.569   2.591  0.00  0.00     0.127 HD
ENDBRANCH  20  24
ENDBRANCH   9  10
ENDBRANCH   7   9
ENDBRANCH   1   7
BRANCH   4  27
ATOM     27  C17 <1> d   1      21.860  19.673  12.917  0.00  0.00     0.252 C 
ATOM     28  O   UNL d   1      22.934  19.588  13.503  0.00  0.00    -0.268 OA
ATOM     29  N   UNL d   1      20.704  20.013  13.577  0.00  0.00    -0.343 N 
ATOM     30  H   UNL d   1      20.778  20.317  14.540  0.00  0.00     0.163 HD
BRANCH  29  31
ATOM     31  CA  UNL d   1      19.364  20.127  12.969  0.00  0.00     0.183 C 
BRANCH  31  32
ATOM     32  CB  UNL d   1      18.328  19.277  13.717  0.00  0.00     0.046 C 
BRANCH  32  33
ATOM     33  CG  UNL d   1      18.579  17.764  13.646  0.00  0.00     0.112 C 
BRANCH  33  34
ATOM     34  CD  UNL d   1      17.836  17.138  12.488  0.00  0.00     0.139 C 
ATOM     35  OE2 UNL d   1      18.325  16.351  11.697  0.00  0.00    -0.650 OA
BRANCH  34  36
ATOM     36  OE1 UNL d   1      16.562  17.579  12.371  0.00  0.00    -0.776 OA
ATOM     37  HE1 UNL d   1      16.291  17.796  11.458  0.00  0.00     0.167 HD
ENDBRANCH  34  36
ENDBRANCH  33  34
ENDBRANCH  32  33
ENDBRANCH  31  32
BRANCH  31  38
ATOM     38  C   UNL d   1      18.851  21.550  12.632  0.00  0.00     0.163 C 
ATOM     39  OXT UNL d   1      17.675  21.762  12.350  0.00  0.00    -0.648 OA
BRANCH  38  40
ATOM     40  O   UNL d   1      19.721  22.567  12.770  0.00  0.00    -0.775 OA
ATOM     41  H   UNL d   1      20.122  22.622  13.671  0.00  0.00     0.167 HD
ENDBRANCH  38  40
ENDBRANCH  31  38
ENDBRANCH  29  31
ENDBRANCH   4  27
TORSDOF 12
ENDMDL
MODEL 3
REMARK VINA RESULT:      -8.4      2.898      5.175
REMARK  12 active torsions:
REMARK  status: ('A' for Active; 'I' for Inactive)
REMARK    1  A    between atoms: O_3  and  C_31 
REMARK    2  A    between atoms: OE1_5  and  CD_32 
REMARK    3  A    between atoms: N_9  and  C_16 
REMARK    4  A    between atoms: N_9  and  C_20 
REMARK    5  A    between atoms: CA_21  and  N_12 
REMARK       I    between atoms: N_12  and  C17_30 
REMARK    6  A    between atoms: N_13  and  C_23 
REMARK    7  A    between atoms: C_14  and  C_16 
REMARK    8  A    between atoms: CA_21  and  CB_22 
REMARK    9  A    between atoms: CA_21  and  C_31 
REMARK   10  A    between atoms: CB_22  and  CG_29 
REMARK   11  A    between atoms: C_26  and  C17_30 
REMARK   12  A    between atoms: CG_29  and  CD_32 
ROOT
ATOM      1  C   UNL d   1      23.006  17.880  10.302  0.00  0.00     0.028 A 
ATOM      2  C   UNL d   1      22.038  17.208   9.544  0.00  0.00     0.030 A 
ATOM      3  C   UNL d   1      22.604  18.454  11.515  0.00  0.00     0.030 A 
ATOM      4  C   UNL d   1      20.327  17.690  11.184  0.00  0.00     0.032 A 
ATOM      5  C   UNL d   1      20.714  17.092   9.985  0.00  0.00     0.019 A 
ATOM      6  C   UNL d   1      21.282  18.357  11.960  0.00  0.00     0.019 A 
ENDROOT
BRANCH   1   7
ATOM      7  N   UNL d   1      24.301  18.123   9.854  0.00  0.00    -0.388 N 
ATOM      8  H   UNL d   1      24.485  17.750   8.920  0.00  0.00     0.159 HD
BRANCH   7   9
ATOM      9  C   UNL d   1      24.931  19.423  10.071  0.00  0.00     0.141 C 
BRANCH   9  10
ATOM     10  C   UNL d   1      24.275  20.519   9.221  0.00  0.00     0.096 C 
ATOM     11  N   UNL d   1      23.867  20.006   7.893  0.00  0.00    -0.278 NA
ATOM     12  C   UNL d   1      23.440  20.979   6.971  0.00  0.00     0.123 A 
ATOM     13  H   UNL d   1      23.231  19.208   7.891  0.00  0.00     0.128 HD
ATOM     14  C   UNL d   1      23.762  22.297   7.055  0.00  0.00     0.153 A 
ATOM     15  C   UNL d   1      22.502  20.579   5.886  0.00  0.00     0.272 A 
ATOM     16  N   UNL d   1      24.547  22.723   8.133  0.00  0.00    -0.371 N 
ATOM     17  N   UNL d   1      23.317  23.238   6.161  0.00  0.00    -0.201 NA
ATOM     18  C   UNL d   1      25.203  21.754   9.020  0.00  0.00     0.142 C 
ATOM     19  H   UNL d   1      25.073  23.555   7.888  0.00  0.00     0.161 HD
ATOM     20  C   UNL d   1      22.498  22.868   5.233  0.00  0.00     0.181 A 
ATOM     21  N   UNL d   1      22.097  21.581   5.059  0.00  0.00    -0.297 N 
ATOM     22  H   UNL d   1      21.417  21.342   4.362  0.00  0.00     0.171 HD
ATOM     23  O   UNL d   1      22.087  19.427   5.779  0.00  0.00    -0.266 OA
BRANCH  20  24
ATOM     24  N   UNL d   1      21.994  23.782   4.368  0.00  0.00    -0.272 NA
ATOM     25  H   UNL d   1      21.021  24.035   4.468  0.00  0.00     0.127 HD
ATOM     26  H   UNL d   1      22.267  23.594   3.409  0.00  0.00     0.127 HD
ENDBRANCH  20  24
ENDBRANCH   9  10
ENDBRANCH   7   9
ENDBRANCH   1   7
BRANCH   4  27
ATOM     27  C17 <1> d   1      18.911  17.716  11.629  0.00  0.00     0.252 C 
ATOM     28  O   UNL d   1      18.395  16.736  12.157  0.00  0.00    -0.268 OA
ATOM     29  N   UNL d   1      18.274  18.932  11.590  0.00  0.00    -0.343 N 
ATOM     30  H   UNL d   1      17.417  19.038  12.119  0.00  0.00     0.163 HD
BRANCH  29  31
ATOM     31  CA  UNL d   1      18.801  20.163  10.970  0.00  0.00     0.183 C 
BRANCH  31  32
ATOM     32  CB  UNL d   1      18.373  20.285   9.501  0.00  0.00     0.046 C 
BRANCH  32  33
ATOM     33  CG  UNL d   1      19.537  20.280   8.499  0.00  0.00     0.112 C 
BRANCH  33  34
ATOM     34  CD  UNL d   1      20.035  21.681   8.231  0.00  0.00     0.139 C 
ATOM     35  OE2 UNL d   1      19.717  22.356   7.266  0.00  0.00    -0.650 OA
BRANCH  34  36
ATOM     36  OE1 UNL d   1      20.930  22.114   9.149  0.00  0.00    -0.776 OA
ATOM     37  HE1 UNL d   1      21.245  21.424   9.763  0.00  0.00     0.167 HD
ENDBRANCH  34  36
ENDBRANCH  33  34
ENDBRANCH  32  33
ENDBRANCH  31  32
BRANCH  31  38
ATOM     38  C   UNL d   1      18.640  21.486  11.759  0.00  0.00     0.163 C 
ATOM     39  OXT UNL d   1      17.562  21.827  12.237  0.00  0.00    -0.648 OA
BRANCH  38  40
ATOM     40  O   UNL d   1      19.756  22.199  12.000  0.00  0.00    -0.775 OA
ATOM     41  H   UNL d   1      19.903  22.930  11.351  0.00  0.00     0.167 HD
ENDBRANCH  38  40
ENDBRANCH  31  38
ENDBRANCH  29  31
ENDBRANCH   4  27
TORSDOF 12
ENDMDL
MODEL 4
REMARK VINA RESULT:      -8.4      2.642      4.540
REMARK  12 active torsions:
REMARK  status: ('A' for Active; 'I' for Inactive)
REMARK    1  A    between atoms: O_3  and  C_31 
REMARK    2  A    between atoms: OE1_5  and  CD_32 
REMARK    3  A    between atoms: N_9  and  C_16 
REMARK    4  A    between atoms: N_9  and  C_20 
REMARK    5  A    between atoms: CA_21  and  N_12 
REMARK       I    between atoms: N_12  and  C17_30 
REMARK    6  A    between atoms: N_13  and  C_23 
REMARK    7  A    between atoms: C_14  and  C_16 
REMARK    8  A    between atoms: CA_21  and  CB_22 
REMARK    9  A    between atoms: CA_21  and  C_31 
REMARK   10  A    between atoms: CB_22  and  CG_29 
REMARK   11  A    between atoms: C_26  and  C17_30 
REMARK   12  A    between atoms: CG_29  and  CD_32 
ROOT
ATOM      1  C   UNL d   1      22.575  21.320  12.474  0.00  0.00     0.028 A 
ATOM      2  C   UNL d   1      21.874  21.789  13.593  0.00  0.00     0.030 A 
ATOM      3  C   UNL d   1      23.053  20.004  12.505  0.00  0.00     0.030 A 
ATOM      4  C   UNL d   1      22.140  19.670  14.727  0.00  0.00     0.032 A 
ATOM      5  C   UNL d   1      21.637  20.969  14.704  0.00  0.00     0.019 A 
ATOM      6  C   UNL d   1      22.834  19.179  13.614  0.00  0.00     0.019 A 
ENDROOT
BRANCH   1   7
ATOM      7  N   UNL d   1      22.937  22.128  11.400  0.00  0.00    -0.388 N 
ATOM      8  H   UNL d   1      22.941  23.125  11.624  0.00  0.00     0.159 HD
BRANCH   7   9
ATOM      9  C   UNL d   1      24.042  21.747  10.523  0.00  0.00     0.141 C 
BRANCH   9  10
ATOM     10  C   UNL d   1      23.571  21.529   9.080  0.00  0.00     0.096 C 
ATOM     11  N   UNL d   1      22.178  21.996   8.886  0.00  0.00    -0.278 NA
ATOM     12  C   UNL d   1      21.590  21.657   7.654  0.00  0.00     0.123 A 
ATOM     13  H   UNL d   1      21.991  22.972   9.115  0.00  0.00     0.128 HD
ATOM     14  C   UNL d   1      22.019  20.638   6.863  0.00  0.00     0.153 A 
ATOM     15  C   UNL d   1      20.493  22.512   7.121  0.00  0.00     0.272 A 
ATOM     16  N   UNL d   1      23.125  19.890   7.282  0.00  0.00    -0.371 N 
ATOM     17  N   UNL d   1      21.450  20.337   5.651  0.00  0.00    -0.201 NA
ATOM     18  C   UNL d   1      23.667  20.039   8.639  0.00  0.00     0.142 C 
ATOM     19  H   UNL d   1      23.092  18.952   6.898  0.00  0.00     0.161 HD
ATOM     20  C   UNL d   1      20.505  21.097   5.207  0.00  0.00     0.181 A 
ATOM     21  N   UNL d   1      20.003  22.150   5.905  0.00  0.00    -0.297 N 
ATOM     22  H   UNL d   1      19.308  22.751   5.503  0.00  0.00     0.171 HD
ATOM     23  O   UNL d   1      20.094  23.506   7.725  0.00  0.00    -0.266 OA
BRANCH  20  24
ATOM     24  N   UNL d   1      19.959  20.863   3.989  0.00  0.00    -0.272 NA
ATOM     25  H   UNL d   1      20.560  20.479   3.273  0.00  0.00     0.127 HD
ATOM     26  H   UNL d   1      19.389  21.638   3.668  0.00  0.00     0.127 HD
ENDBRANCH  20  24
ENDBRANCH   9  10
ENDBRANCH   7   9
ENDBRANCH   1   7
BRANCH   4  27
ATOM     27  C17 <1> d   1      22.037  18.807  15.931  0.00  0.00     0.252 C 
ATOM     28  O   UNL d   1      22.951  18.743  16.745  0.00  0.00    -0.268 OA
ATOM     29  N   UNL d   1      20.812  18.236  16.177  0.00  0.00    -0.343 N 
ATOM     30  H   UNL d   1      20.637  17.867  17.104  0.00  0.00     0.163 HD
BRANCH  29  31
ATOM     31  CA  UNL d   1      19.656  18.244  15.260  0.00  0.00     0.183 C 
BRANCH  31  32
ATOM     32  CB  UNL d   1      19.736  17.103  14.237  0.00  0.00     0.046 C 
BRANCH  32  33
ATOM     33  CG  UNL d   1      19.649  17.557  12.773  0.00  0.00     0.112 C 
BRANCH  33  34
ATOM     34  CD  UNL d   1      18.430  16.980  12.091  0.00  0.00     0.139 C 
ATOM     35  OE2 UNL d   1      18.415  15.926  11.478  0.00  0.00    -0.650 OA
BRANCH  34  36
ATOM     36  OE1 UNL d   1      17.342  17.779  12.176  0.00  0.00    -0.776 OA
ATOM     37  HE1 UNL d   1      16.575  17.474  11.654  0.00  0.00     0.167 HD
ENDBRANCH  34  36
ENDBRANCH  33  34
ENDBRANCH  32  33
ENDBRANCH  31  32
BRANCH  31  38
ATOM     38  C   UNL d   1      18.247  18.396  15.888  0.00  0.00     0.163 C 
ATOM     39  OXT UNL d   1      17.226  18.312  15.211  0.00  0.00    -0.648 OA
BRANCH  38  40
ATOM     40  O   UNL d   1      18.179  18.514  17.226  0.00  0.00    -0.775 OA
ATOM     41  H   UNL d   1      18.103  19.450  17.536  0.00  0.00     0.167 HD
ENDBRANCH  38  40
ENDBRANCH  31  38
ENDBRANCH  29  31
ENDBRANCH   4  27
TORSDOF 12
ENDMDL
MODEL 5
REMARK VINA RESULT:      -8.3      3.801      6.156
REMARK  12 active torsions:
REMARK  status: ('A' for Active; 'I' for Inactive)
REMARK    1  A    between atoms: O_3  and  C_31 
REMARK    2  A    between atoms: OE1_5  and  CD_32 
REMARK    3  A    between atoms: N_9  and  C_16 
REMARK    4  A    between atoms: N_9  and  C_20 
REMARK    5  A    between atoms: CA_21  and  N_12 
REMARK       I    between atoms: N_12  and  C17_30 
REMARK    6  A    between atoms: N_13  and  C_23 
REMARK    7  A    between atoms: C_14  and  C_16 
REMARK    8  A    between atoms: CA_21  and  CB_22 
REMARK    9  A    between atoms: CA_21  and  C_31 
REMARK   10  A    between atoms: CB_22  and  CG_29 
REMARK   11  A    between atoms: C_26  and  C17_30 
REMARK   12  A    between atoms: CG_29  and  CD_32 
ROOT
ATOM      1  C   UNL d   1      18.728  17.092  12.276  0.00  0.00     0.028 A 
ATOM      2  C   UNL d   1      19.345  16.827  13.505  0.00  0.00     0.030 A 
ATOM      3  C   UNL d   1      19.023  16.245  11.199  0.00  0.00     0.030 A 
ATOM      4  C   UNL d   1      20.516  14.924  12.579  0.00  0.00     0.032 A 
ATOM      5  C   UNL d   1      20.216  15.741  13.668  0.00  0.00     0.019 A 
ATOM      6  C   UNL d   1      19.901  15.166  11.345  0.00  0.00     0.019 A 
ENDROOT
BRANCH   1   7
ATOM      7  N   UNL d   1      17.951  18.221  12.034  0.00  0.00    -0.388 N 
ATOM      8  H   UNL d   1      17.050  18.206  12.516  0.00  0.00     0.159 HD
BRANCH   7   9
ATOM      9  C   UNL d   1      18.557  19.551  12.021  0.00  0.00     0.141 C 
BRANCH   9  10
ATOM     10  C   UNL d   1      18.912  19.997  10.596  0.00  0.00     0.096 C 
ATOM     11  N   UNL d   1      20.200  19.418  10.150  0.00  0.00    -0.278 NA
ATOM     12  C   UNL d   1      20.707  19.925   8.940  0.00  0.00     0.123 A 
ATOM     13  H   UNL d   1      20.270  18.400  10.168  0.00  0.00     0.128 HD
ATOM     14  C   UNL d   1      20.350  21.126   8.412  0.00  0.00     0.153 A 
ATOM     15  C   UNL d   1      21.617  19.071   8.127  0.00  0.00     0.272 A 
ATOM     16  N   UNL d   1      19.405  21.899   9.096  0.00  0.00    -0.371 N 
ATOM     17  N   UNL d   1      20.835  21.595   7.217  0.00  0.00    -0.201 NA
ATOM     18  C   UNL d   1      18.982  21.547  10.457  0.00  0.00     0.142 C 
ATOM     19  H   UNL d   1      19.532  22.885   8.892  0.00  0.00     0.161 HD
ATOM     20  C   UNL d   1      21.617  20.833   6.527  0.00  0.00     0.181 A 
ATOM     21  N   UNL d   1      22.032  19.610   6.949  0.00  0.00    -0.297 N 
ATOM     22  H   UNL d   1      22.594  19.024   6.360  0.00  0.00     0.171 HD
ATOM     23  O   UNL d   1      21.930  17.937   8.481  0.00  0.00    -0.266 OA
BRANCH  20  24
ATOM     24  N   UNL d   1      22.069  21.242   5.316  0.00  0.00    -0.272 NA
ATOM     25  H   UNL d   1      22.063  22.234   5.124  0.00  0.00     0.127 HD
ATOM     26  H   UNL d   1      21.698  20.679   4.558  0.00  0.00     0.127 HD
ENDBRANCH  20  24
ENDBRANCH   9  10
ENDBRANCH   7   9
ENDBRANCH   1   7
BRANCH   4  27
ATOM     27  C17 <1> d   1      21.534  13.847  12.661  0.00  0.00     0.252 C 
ATOM     28  O   UNL d   1      21.216  12.694  12.932  0.00  0.00    -0.268 OA
ATOM     29  N   UNL d   1      22.803  14.164  12.244  0.00  0.00    -0.343 N 
ATOM     30  H   UNL d   1      23.443  13.406  12.042  0.00  0.00     0.163 HD
BRANCH  29  31
ATOM     31  CA  UNL d   1      23.288  15.518  11.908  0.00  0.00     0.183 C 
BRANCH  31  32
ATOM     32  CB  UNL d   1      23.669  16.311  13.166  0.00  0.00     0.046 C 
BRANCH  32  33
ATOM     33  CG  UNL d   1      24.121  17.753  12.892  0.00  0.00     0.112 C 
BRANCH  33  34
ATOM     34  CD  UNL d   1      23.013  18.564  12.261  0.00  0.00     0.139 C 
ATOM     35  OE2 UNL d   1      21.937  18.791  12.787  0.00  0.00    -0.650 OA
BRANCH  34  36
ATOM     36  OE1 UNL d   1      23.305  18.983  11.008  0.00  0.00    -0.776 OA
ATOM     37  HE1 UNL d   1      23.678  19.884  10.960  0.00  0.00     0.167 HD
ENDBRANCH  34  36
ENDBRANCH  33  34
ENDBRANCH  32  33
ENDBRANCH  31  32
BRANCH  31  38
ATOM     38  C   UNL d   1      24.337  15.640  10.775  0.00  0.00     0.163 C 
ATOM     39  OXT UNL d   1      25.407  15.040  10.817  0.00  0.00    -0.648 OA
BRANCH  38  40
ATOM     40  O   UNL d   1      23.984  16.344   9.683  0.00  0.00    -0.775 OA
ATOM     41  H   UNL d   1      23.715  17.273   9.884  0.00  0.00     0.167 HD
ENDBRANCH  38  40
ENDBRANCH  31  38
ENDBRANCH  29  31
ENDBRANCH   4  27
TORSDOF 12
ENDMDL
MODEL 6
REMARK VINA RESULT:      -8.2      2.912      4.294
REMARK  12 active torsions:
REMARK  status: ('A' for Active; 'I' for Inactive)
REMARK    1  A    between atoms: O_3  and  C_31 
REMARK    2  A    between atoms: OE1_5  and  CD_32 
REMARK    3  A    between atoms: N_9  and  C_16 
REMARK    4  A    between atoms: N_9  and  C_20 
REMARK    5  A    between atoms: CA_21  and  N_12 
REMARK       I    between atoms: N_12  and  C17_30 
REMARK    6  A    between atoms: N_13  and  C_23 
REMARK    7  A    between atoms: C_14  and  C_16 
REMARK    8  A    between atoms: CA_21  and  CB_22 
REMARK    9  A    between atoms: CA_21  and  C_31 
REMARK   10  A    between atoms: CB_22  and  CG_29 
REMARK   11  A    between atoms: C_26  and  C17_30 
REMARK   12  A    between atoms: CG_29  and  CD_32 
ROOT
ATOM      1  C   UNL d   1      20.953  20.831  11.589  0.00  0.00     0.028 A 
ATOM      2  C   UNL d   1      21.664  19.632  11.736  0.00  0.00     0.030 A 
ATOM      3  C   UNL d   1      20.458  21.443  12.747  0.00  0.00     0.030 A 
ATOM      4  C   UNL d   1      21.373  19.679  14.136  0.00  0.00     0.032 A 
ATOM      5  C   UNL d   1      21.894  19.068  12.997  0.00  0.00     0.019 A 
ATOM      6  C   UNL d   1      20.669  20.883  14.011  0.00  0.00     0.019 A 
ENDROOT
BRANCH   1   7
ATOM      7  N   UNL d   1      20.599  21.368  10.355  0.00  0.00    -0.388 N 
ATOM      8  H   UNL d   1      21.019  22.282  10.174  0.00  0.00     0.159 HD
BRANCH   7   9
ATOM      9  C   UNL d   1      20.556  20.525   9.163  0.00  0.00     0.141 C 
BRANCH   9  10
ATOM     10  C   UNL d   1      20.894  21.319   7.895  0.00  0.00     0.096 C 
ATOM     11  N   UNL d   1      22.344  21.610   7.806  0.00  0.00    -0.278 NA
ATOM     12  C   UNL d   1      22.722  22.502   6.786  0.00  0.00     0.123 A 
ATOM     13  H   UNL d   1      22.970  20.805   7.827  0.00  0.00     0.128 HD
ATOM     14  C   UNL d   1      21.874  23.387   6.198  0.00  0.00     0.153 A 
ATOM     15  C   UNL d   1      24.105  22.423   6.237  0.00  0.00     0.272 A 
ATOM     16  N   UNL d   1      20.537  23.403   6.612  0.00  0.00    -0.371 N 
ATOM     17  N   UNL d   1      22.253  24.233   5.187  0.00  0.00    -0.201 NA
ATOM     18  C   UNL d   1      20.106  22.659   7.802  0.00  0.00     0.142 C 
ATOM     19  H   UNL d   1      20.126  24.318   6.464  0.00  0.00     0.161 HD
ATOM     20  C   UNL d   1      23.455  24.141   4.722  0.00  0.00     0.181 A 
ATOM     21  N   UNL d   1      24.386  23.285   5.223  0.00  0.00    -0.297 N 
ATOM     22  H   UNL d   1      25.291  23.202   4.800  0.00  0.00     0.171 HD
ATOM     23  O   UNL d   1      24.919  21.597   6.646  0.00  0.00    -0.266 OA
BRANCH  20  24
ATOM     24  N   UNL d   1      23.846  24.921   3.686  0.00  0.00    -0.272 NA
ATOM     25  H   UNL d   1      24.758  25.351   3.741  0.00  0.00     0.127 HD
ATOM     26  H   UNL d   1      23.114  25.558   3.388  0.00  0.00     0.127 HD
ENDBRANCH  20  24
ENDBRANCH   9  10
ENDBRANCH   7   9
ENDBRANCH   1   7
BRANCH   4  27
ATOM     27  C17 <1> d   1      21.468  19.053  15.479  0.00  0.00     0.252 C 
ATOM     28  O   UNL d   1      22.482  19.166  16.160  0.00  0.00    -0.268 OA
ATOM     29  N   UNL d   1      20.316  18.507  15.988  0.00  0.00    -0.343 N 
ATOM     30  H   UNL d   1      20.279  18.311  16.981  0.00  0.00     0.163 HD
BRANCH  29  31
ATOM     31  CA  UNL d   1      19.052  18.314  15.250  0.00  0.00     0.183 C 
BRANCH  31  32
ATOM     32  CB  UNL d   1      19.083  17.039  14.396  0.00  0.00     0.046 C 
BRANCH  32  33
ATOM     33  CG  UNL d   1      18.996  17.288  12.883  0.00  0.00     0.112 C 
BRANCH  33  34
ATOM     34  CD  UNL d   1      17.796  18.140  12.536  0.00  0.00     0.139 C 
ATOM     35  OE2 UNL d   1      17.846  19.329  12.274  0.00  0.00    -0.650 OA
BRANCH  34  36
ATOM     36  OE1 UNL d   1      16.626  17.464  12.595  0.00  0.00    -0.776 OA
ATOM     37  HE1 UNL d   1      16.561  16.714  11.973  0.00  0.00     0.167 HD
ENDBRANCH  34  36
ENDBRANCH  33  34
ENDBRANCH  32  33
ENDBRANCH  31  32
BRANCH  31  38
ATOM     38  C   UNL d   1      17.730  18.480  16.040  0.00  0.00     0.163 C 
ATOM     39  OXT UNL d   1      16.645  18.167  15.558  0.00  0.00    -0.648 OA
BRANCH  38  40
ATOM     40  O   UNL d   1      17.825  18.878  17.322  0.00  0.00    -0.775 OA
ATOM     41  H   UNL d   1      17.017  19.343  17.650  0.00  0.00     0.167 HD
ENDBRANCH  38  40
ENDBRANCH  31  38
ENDBRANCH  29  31
ENDBRANCH   4  27
TORSDOF 12
ENDMDL
MODEL 7
REMARK VINA RESULT:      -8.2      1.227      1.773
REMARK  12 active torsions:
REMARK  status: ('A' for Active; 'I' for Inactive)
REMARK    1  A    between atoms: O_3  and  C_31 
REMARK    2  A    between atoms: OE1_5  and  CD_32 
REMARK    3  A    between atoms: N_9  and  C_16 
REMARK    4  A    between atoms: N_9  and  C_20 
REMARK    5  A    between atoms: CA_21  and  N_12 
REMARK       I    between atoms: N_12  and  C17_30 
REMARK    6  A    between atoms: N_13  and  C_23 
REMARK    7  A    between atoms: C_14  and  C_16 
REMARK    8  A    between atoms: CA_21  and  CB_22 
REMARK    9  A    between atoms: CA_21  and  C_31 
REMARK   10  A    between atoms: CB_22  and  CG_29 
REMARK   11  A    between atoms: C_26  and  C17_30 
REMARK   12  A    between atoms: CG_29  and  CD_32 
ROOT
ATOM      1  C   UNL d   1      20.712  19.470   8.859  0.00  0.00     0.028 A 
ATOM      2  C   UNL d   1      19.313  19.532   8.923  0.00  0.00     0.030 A 
ATOM      3  C   UNL d   1      21.433  19.746  10.027  0.00  0.00     0.030 A 
ATOM      4  C   UNL d   1      19.385  20.135  11.264  0.00  0.00     0.032 A 
ATOM      5  C   UNL d   1      18.649  19.840  10.117  0.00  0.00     0.019 A 
ATOM      6  C   UNL d   1      20.782  20.068  11.223  0.00  0.00     0.019 A 
ENDROOT
BRANCH   1   7
ATOM      7  N   UNL d   1      21.419  19.285   7.674  0.00  0.00    -0.388 N 
ATOM      8  H   UNL d   1      20.913  18.730   6.981  0.00  0.00     0.159 HD
BRANCH   7   9
ATOM      9  C   UNL d   1      22.164  20.389   7.074  0.00  0.00     0.141 C 
BRANCH   9  10
ATOM     10  C   UNL d   1      21.247  21.318   6.267  0.00  0.00     0.096 C 
ATOM     11  N   UNL d   1      20.695  20.636   5.074  0.00  0.00    -0.278 NA
ATOM     12  C   UNL d   1      20.006  21.461   4.168  0.00  0.00     0.123 A 
ATOM     13  H   UNL d   1      20.171  19.777   5.245  0.00  0.00     0.128 HD
ATOM     14  C   UNL d   1      20.170  22.809   4.092  0.00  0.00     0.153 A 
ATOM     15  C   UNL d   1      18.960  20.857   3.296  0.00  0.00     0.272 A 
ATOM     16  N   UNL d   1      21.061  23.421   4.980  0.00  0.00    -0.371 N 
ATOM     17  N   UNL d   1      19.472  23.603   3.218  0.00  0.00    -0.201 NA
ATOM     18  C   UNL d   1      21.968  22.621   5.813  0.00  0.00     0.142 C 
ATOM     19  H   UNL d   1      21.432  24.278   4.585  0.00  0.00     0.161 HD
ATOM     20  C   UNL d   1      18.565  23.057   2.478  0.00  0.00     0.181 A 
ATOM     21  N   UNL d   1      18.304  21.723   2.477  0.00  0.00    -0.297 N 
ATOM     22  H   UNL d   1      17.555  21.344   1.929  0.00  0.00     0.171 HD
ATOM     23  O   UNL d   1      18.680  19.662   3.352  0.00  0.00    -0.266 OA
BRANCH  20  24
ATOM     24  N   UNL d   1      17.816  23.821   1.645  0.00  0.00    -0.272 NA
ATOM     25  H   UNL d   1      18.301  24.476   1.048  0.00  0.00     0.127 HD
ATOM     26  H   UNL d   1      17.008  24.218   2.111  0.00  0.00     0.127 HD
ENDBRANCH  20  24
ENDBRANCH   9  10
ENDBRANCH   7   9
ENDBRANCH   1   7
BRANCH   4  27
ATOM     27  C17 <1> d   1      18.737  20.600  12.516  0.00  0.00     0.252 C 
ATOM     28  O   UNL d   1      18.434  21.778  12.673  0.00  0.00    -0.268 OA
ATOM     29  N   UNL d   1      18.333  19.629  13.400  0.00  0.00    -0.343 N 
ATOM     30  H   UNL d   1      17.670  19.887  14.121  0.00  0.00     0.163 HD
BRANCH  29  31
ATOM     31  CA  UNL d   1      18.655  18.191  13.309  0.00  0.00     0.183 C 
BRANCH  31  32
ATOM     32  CB  UNL d   1      19.041  17.610  14.676  0.00  0.00     0.046 C 
BRANCH  32  33
ATOM     33  CG  UNL d   1      19.785  18.590  15.594  0.00  0.00     0.112 C 
BRANCH  33  34
ATOM     34  CD  UNL d   1      21.177  18.877  15.077  0.00  0.00     0.139 C 
ATOM     35  OE2 UNL d   1      22.090  18.069  15.065  0.00  0.00    -0.650 OA
BRANCH  34  36
ATOM     36  OE1 UNL d   1      21.340  20.156  14.666  0.00  0.00    -0.776 OA
ATOM     37  HE1 UNL d   1      21.035  20.330  13.755  0.00  0.00     0.167 HD
ENDBRANCH  34  36
ENDBRANCH  33  34
ENDBRANCH  32  33
ENDBRANCH  31  32
BRANCH  31  38
ATOM     38  C   UNL d   1      17.672  17.288  12.523  0.00  0.00     0.163 C 
ATOM     39  OXT UNL d   1      16.456  17.378  12.665  0.00  0.00    -0.648 OA
BRANCH  38  40
ATOM     40  O   UNL d   1      18.197  16.472  11.590  0.00  0.00    -0.775 OA
ATOM     41  H   UNL d   1      17.612  15.710  11.360  0.00  0.00     0.167 HD
ENDBRANCH  38  40
ENDBRANCH  31  38
ENDBRANCH  29  31
ENDBRANCH   4  27
TORSDOF 12
ENDMDL
MODEL 8
REMARK VINA RESULT:      -8.1      4.058      6.923
REMARK  12 active torsions:
REMARK  status: ('A' for Active; 'I' for Inactive)
REMARK    1  A    between atoms: O_3  and  C_31 
REMARK    2  A    between atoms: OE1_5  and  CD_32 
REMARK    3  A    between atoms: N_9  and  C_16 
REMARK    4  A    between atoms: N_9  and  C_20 
REMARK    5  A    between atoms: CA_21  and  N_12 
REMARK       I    between atoms: N_12  and  C17_30 
REMARK    6  A    between atoms: N_13  and  C_23 
REMARK    7  A    between atoms: C_14  and  C_16 
REMARK    8  A    between atoms: CA_21  and  CB_22 
REMARK    9  A    between atoms: CA_21  and  C_31 
REMARK   10  A    between atoms: CB_22  and  CG_29 
REMARK   11  A    between atoms: C_26  and  C17_30 
REMARK   12  A    between atoms: CG_29  and  CD_32 
ROOT
ATOM      1  C   UNL d   1      21.766  16.169  12.181  0.00  0.00     0.028 A 
ATOM      2  C   UNL d   1      20.898  15.957  11.101  0.00  0.00     0.030 A 
ATOM      3  C   UNL d   1      21.264  16.845  13.301  0.00  0.00     0.030 A 
ATOM      4  C   UNL d   1      19.091  17.078  12.252  0.00  0.00     0.032 A 
ATOM      5  C   UNL d   1      19.566  16.386  11.139  0.00  0.00     0.019 A 
ATOM      6  C   UNL d   1      19.939  17.291  13.345  0.00  0.00     0.019 A 
ENDROOT
BRANCH   1   7
ATOM      7  N   UNL d   1      23.125  15.867  12.146  0.00  0.00    -0.388 N 
ATOM      8  H   UNL d   1      23.441  15.520  11.238  0.00  0.00     0.159 HD
BRANCH   7   9
ATOM      9  C   UNL d   1      24.099  16.755  12.777  0.00  0.00     0.141 C 
BRANCH   9  10
ATOM     10  C   UNL d   1      24.560  17.861  11.820  0.00  0.00     0.096 C 
ATOM     11  N   UNL d   1      23.659  19.036  11.873  0.00  0.00    -0.278 NA
ATOM     12  C   UNL d   1      23.883  20.017  10.891  0.00  0.00     0.123 A 
ATOM     13  H   UNL d   1      23.532  19.469  12.788  0.00  0.00     0.128 HD
ATOM     14  C   UNL d   1      24.531  19.784   9.718  0.00  0.00     0.153 A 
ATOM     15  C   UNL d   1      23.479  21.423  11.172  0.00  0.00     0.272 A 
ATOM     16  N   UNL d   1      25.026  18.497   9.477  0.00  0.00    -0.371 N 
ATOM     17  N   UNL d   1      24.763  20.758   8.781  0.00  0.00    -0.201 NA
ATOM     18  C   UNL d   1      24.661  17.371  10.346  0.00  0.00     0.142 C 
ATOM     19  H   UNL d   1      25.081  18.314   8.481  0.00  0.00     0.161 HD
ATOM     20  C   UNL d   1      24.410  21.971   9.051  0.00  0.00     0.181 A 
ATOM     21  N   UNL d   1      23.767  22.325  10.195  0.00  0.00    -0.297 N 
ATOM     22  H   UNL d   1      23.559  23.286  10.395  0.00  0.00     0.171 HD
ATOM     23  O   UNL d   1      22.964  21.748  12.239  0.00  0.00    -0.266 OA
BRANCH  20  24
ATOM     24  N   UNL d   1      24.676  22.968   8.173  0.00  0.00    -0.272 NA
ATOM     25  H   UNL d   1      25.197  23.765   8.511  0.00  0.00     0.127 HD
ATOM     26  H   UNL d   1      23.862  23.220   7.621  0.00  0.00     0.127 HD
ENDBRANCH  20  24
ENDBRANCH   9  10
ENDBRANCH   7   9
ENDBRANCH   1   7
BRANCH   4  27
ATOM     27  C17 <1> d   1      17.731  17.674  12.287  0.00  0.00     0.252 C 
ATOM     28  O   UNL d   1      16.773  17.042  12.718  0.00  0.00    -0.268 OA
ATOM     29  N   UNL d   1      17.636  19.012  11.989  0.00  0.00    -0.343 N 
ATOM     30  H   UNL d   1      16.788  19.499  12.252  0.00  0.00     0.163 HD
BRANCH  29  31
ATOM     31  CA  UNL d   1      18.722  19.856  11.453  0.00  0.00     0.183 C 
BRANCH  31  32
ATOM     32  CB  UNL d   1      18.818  19.754   9.925  0.00  0.00     0.046 C 
BRANCH  32  33
ATOM     33  CG  UNL d   1      20.249  19.590   9.390  0.00  0.00     0.112 C 
BRANCH  33  34
ATOM     34  CD  UNL d   1      20.596  20.689   8.411  0.00  0.00     0.139 C 
ATOM     35  OE2 UNL d   1      20.642  20.547   7.201  0.00  0.00    -0.650 OA
BRANCH  34  36
ATOM     36  OE1 UNL d   1      20.911  21.859   9.012  0.00  0.00    -0.776 OA
ATOM     37  HE1 UNL d   1      21.111  22.589   8.395  0.00  0.00     0.167 HD
ENDBRANCH  34  36
ENDBRANCH  33  34
ENDBRANCH  32  33
ENDBRANCH  31  32
BRANCH  31  38
ATOM     38  C   UNL d   1      18.813  21.314  11.969  0.00  0.00     0.163 C 
ATOM     39  OXT UNL d   1      17.858  21.872  12.502  0.00  0.00    -0.648 OA
BRANCH  38  40
ATOM     40  O   UNL d   1      20.017  21.913  11.912  0.00  0.00    -0.775 OA
ATOM     41  H   UNL d   1      19.987  22.877  12.129  0.00  0.00     0.167 HD
ENDBRANCH  38  40
ENDBRANCH  31  38
ENDBRANCH  29  31
ENDBRANCH   4  27
TORSDOF 12
ENDMDL
MODEL 9
REMARK VINA RESULT:      -8.0      2.797      4.322
REMARK  12 active torsions:
REMARK  status: ('A' for Active; 'I' for Inactive)
REMARK    1  A    between atoms: O_3  and  C_31 
REMARK    2  A    between atoms: OE1_5  and  CD_32 
REMARK    3  A    between atoms: N_9  and  C_16 
REMARK    4  A    between atoms: N_9  and  C_20 
REMARK    5  A    between atoms: CA_21  and  N_12 
REMARK       I    between atoms: N_12  and  C17_30 
REMARK    6  A    between atoms: N_13  and  C_23 
REMARK    7  A    between atoms: C_14  and  C_16 
REMARK    8  A    between atoms: CA_21  and  CB_22 
REMARK    9  A    between atoms: CA_21  and  C_31 
REMARK   10  A    between atoms: CB_22  and  CG_29 
REMARK   11  A    between atoms: C_26  and  C17_30 
REMARK   12  A    between atoms: CG_29  and  CD_32 
ROOT
ATOM      1  C   UNL d   1      24.111  19.511  10.650  0.00  0.00     0.028 A 
ATOM      2  C   UNL d   1      23.748  18.474  11.521  0.00  0.00     0.030 A 
ATOM      3  C   UNL d   1      24.014  20.826  11.122  0.00  0.00     0.030 A 
ATOM      4  C   UNL d   1      23.209  20.050  13.273  0.00  0.00     0.032 A 
ATOM      5  C   UNL d   1      23.321  18.734  12.829  0.00  0.00     0.019 A 
ATOM      6  C   UNL d   1      23.576  21.099  12.422  0.00  0.00     0.019 A 
ENDROOT
BRANCH   1   7
ATOM      7  N   UNL d   1      24.428  19.313   9.309  0.00  0.00    -0.388 N 
ATOM      8  H   UNL d   1      23.857  18.595   8.858  0.00  0.00     0.159 HD
BRANCH   7   9
ATOM      9  C   UNL d   1      24.693  20.451   8.432  0.00  0.00     0.141 C 
BRANCH   9  10
ATOM     10  C   UNL d   1      23.627  20.581   7.336  0.00  0.00     0.096 C 
ATOM     11  N   UNL d   1      23.252  21.996   7.108  0.00  0.00    -0.278 NA
ATOM     12  C   UNL d   1      22.143  22.202   6.267  0.00  0.00     0.123 A 
ATOM     13  H   UNL d   1      24.010  22.632   6.862  0.00  0.00     0.128 HD
ATOM     14  C   UNL d   1      21.195  21.260   6.016  0.00  0.00     0.153 A 
ATOM     15  C   UNL d   1      22.033  23.488   5.524  0.00  0.00     0.272 A 
ATOM     16  N   UNL d   1      21.336  20.000   6.609  0.00  0.00    -0.371 N 
ATOM     17  N   UNL d   1      20.133  21.469   5.173  0.00  0.00    -0.201 NA
ATOM     18  C   UNL d   1      22.340  19.765   7.655  0.00  0.00     0.142 C 
ATOM     19  H   UNL d   1      20.432  19.555   6.728  0.00  0.00     0.161 HD
ATOM     20  C   UNL d   1      20.064  22.589   4.534  0.00  0.00     0.181 A 
ATOM     21  N   UNL d   1      20.959  23.599   4.696  0.00  0.00    -0.297 N 
ATOM     22  H   UNL d   1      20.904  24.432   4.140  0.00  0.00     0.171 HD
ATOM     23  O   UNL d   1      22.886  24.368   5.620  0.00  0.00    -0.266 OA
BRANCH  20  24
ATOM     24  N   UNL d   1      19.059  22.807   3.651  0.00  0.00    -0.272 NA
ATOM     25  H   UNL d   1      19.311  22.985   2.689  0.00  0.00     0.127 HD
ATOM     26  H   UNL d   1      18.362  23.448   4.013  0.00  0.00     0.127 HD
ENDBRANCH  20  24
ENDBRANCH   9  10
ENDBRANCH   7   9
ENDBRANCH   1   7
BRANCH   4  27
ATOM     27  C17 <1> d   1      22.632  20.386  14.600  0.00  0.00     0.252 C 
ATOM     28  O   UNL d   1      23.353  20.623  15.563  0.00  0.00    -0.268 OA
ATOM     29  N   UNL d   1      21.276  20.597  14.647  0.00  0.00    -0.343 N 
ATOM     30  H   UNL d   1      20.895  21.072  15.456  0.00  0.00     0.163 HD
BRANCH  29  31
ATOM     31  CA  UNL d   1      20.322  20.332  13.552  0.00  0.00     0.183 C 
BRANCH  31  32
ATOM     32  CB  UNL d   1      19.446  19.107  13.848  0.00  0.00     0.046 C 
BRANCH  32  33
ATOM     33  CG  UNL d   1      19.673  17.921  12.898  0.00  0.00     0.112 C 
BRANCH  33  34
ATOM     34  CD  UNL d   1      19.219  18.248  11.494  0.00  0.00     0.139 C 
ATOM     35  OE2 UNL d   1      19.921  18.157  10.502  0.00  0.00    -0.650 OA
BRANCH  34  36
ATOM     36  OE1 UNL d   1      17.950  18.713  11.439  0.00  0.00    -0.776 OA
ATOM     37  HE1 UNL d   1      17.780  19.342  10.711  0.00  0.00     0.167 HD
ENDBRANCH  34  36
ENDBRANCH  33  34
ENDBRANCH  32  33
ENDBRANCH  31  32
BRANCH  31  38
ATOM     38  C   UNL d   1      19.515  21.533  13.001  0.00  0.00     0.163 C 
ATOM     39  OXT UNL d   1      18.315  21.448  12.754  0.00  0.00    -0.648 OA
BRANCH  38  40
ATOM     40  O   UNL d   1      20.155  22.713  12.906  0.00  0.00    -0.775 OA
ATOM     41  H   UNL d   1      21.054  22.707  13.317  0.00  0.00     0.167 HD
ENDBRANCH  38  40
ENDBRANCH  31  38
ENDBRANCH  29  31
ENDBRANCH   4  27
TORSDOF 12
ENDMDL
