MODEL 1
REMARK VINA RESULT:      -6.1      0.000      0.000
REMARK  3 active torsions:
REMARK  status: ('A' for Active; 'I' for Inactive)
REMARK    1  A    between atoms: C_1  and  O_3 
REMARK    2  A    between atoms: C_1  and  C_4 
REMARK    3  A    between atoms: C_5  and  O_10 
ROOT
ATOM      1  C   UNL d   1       6.966 -10.623 -26.204  0.00  0.00     0.070 A 
ATOM      2  C   UNL d   1       6.197 -11.616 -25.582  0.00  0.00     0.082 A 
ATOM      3  C   UNL d   1       6.523 -12.064 -24.301  0.00  0.00     0.037 A 
ATOM      4  C   UNL d   1       7.622 -11.528 -23.632  0.00  0.00     0.003 A 
ATOM      5  C   UNL d   1       8.400 -10.545 -24.243  0.00  0.00     0.001 A 
ATOM      6  C   UNL d   1       8.073 -10.092 -25.523  0.00  0.00     0.021 A 
ENDROOT
BRANCH   1   7
ATOM      7  C   UNL d   1       6.676 -10.083 -27.555  0.00  0.00     0.178 C 
ATOM      8  O   UNL d   1       5.627 -10.188 -28.163  0.00  0.00    -0.646 OA
BRANCH   7   9
ATOM      9  O   UNL d   1       7.727  -9.432 -28.099  0.00  0.00    -0.773 OA
ATOM     10  H   UNL d   1       8.259  -9.174 -27.313  0.00  0.00     0.167 HD
ENDBRANCH   7   9
ENDBRANCH   1   7
BRANCH   2  11
ATOM     11  O   UNL d   1       5.107 -12.209 -26.159  0.00  0.00    -0.360 OA
ATOM     12  H   UNL d   1       4.793 -11.613 -26.871  0.00  0.00     0.217 HD
ENDBRANCH   2  11
TORSDOF 3
ENDMDL
MODEL 2
REMARK VINA RESULT:      -6.0      1.705      3.180
REMARK  3 active torsions:
REMARK  status: ('A' for Active; 'I' for Inactive)
REMARK    1  A    between atoms: C_1  and  O_3 
REMARK    2  A    between atoms: C_1  and  C_4 
REMARK    3  A    between atoms: C_5  and  O_10 
ROOT
ATOM      1  C   UNL d   1       7.026 -11.023 -25.223  0.00  0.00     0.070 A 
ATOM      2  C   UNL d   1       8.002 -10.949 -24.221  0.00  0.00     0.082 A 
ATOM      3  C   UNL d   1       8.979  -9.953 -24.257  0.00  0.00     0.037 A 
ATOM      4  C   UNL d   1       8.993  -9.026 -25.298  0.00  0.00     0.003 A 
ATOM      5  C   UNL d   1       8.032  -9.094 -26.306  0.00  0.00     0.001 A 
ATOM      6  C   UNL d   1       7.050 -10.088 -26.269  0.00  0.00     0.021 A 
ENDROOT
BRANCH   1   7
ATOM      7  C   UNL d   1       5.945 -12.041 -25.247  0.00  0.00     0.178 C 
ATOM      8  O   UNL d   1       5.683 -12.833 -24.361  0.00  0.00    -0.646 OA
BRANCH   7   9
ATOM      9  O   UNL d   1       5.236 -12.029 -26.396  0.00  0.00    -0.773 OA
ATOM     10  H   UNL d   1       5.694 -12.704 -26.946  0.00  0.00     0.167 HD
ENDBRANCH   7   9
ENDBRANCH   1   7
BRANCH   2  11
ATOM     11  O   UNL d   1       8.077 -11.816 -23.164  0.00  0.00    -0.360 OA
ATOM     12  H   UNL d   1       9.026 -11.993 -22.998  0.00  0.00     0.217 HD
ENDBRANCH   2  11
TORSDOF 3
ENDMDL
MODEL 3
REMARK VINA RESULT:      -6.0      2.744      4.154
REMARK  3 active torsions:
REMARK  status: ('A' for Active; 'I' for Inactive)
REMARK    1  A    between atoms: C_1  and  O_3 
REMARK    2  A    between atoms: C_1  and  C_4 
REMARK    3  A    between atoms: C_5  and  O_10 
ROOT
ATOM      1  C   UNL d   1       7.410  -9.696 -24.620  0.00  0.00     0.070 A 
ATOM      2  C   UNL d   1       8.007  -9.955 -25.861  0.00  0.00     0.082 A 
ATOM      3  C   UNL d   1       7.479  -9.402 -27.029  0.00  0.00     0.037 A 
ATOM      4  C   UNL d   1       6.347  -8.590 -26.968  0.00  0.00     0.003 A 
ATOM      5  C   UNL d   1       5.739  -8.331 -25.740  0.00  0.00     0.001 A 
ATOM      6  C   UNL d   1       6.269  -8.881 -24.569  0.00  0.00     0.021 A 
ENDROOT
BRANCH   1   7
ATOM      7  C   UNL d   1       7.920 -10.233 -23.333  0.00  0.00     0.178 C 
ATOM      8  O   UNL d   1       8.288  -9.579 -22.376  0.00  0.00    -0.646 OA
BRANCH   7   9
ATOM      9  O   UNL d   1       7.956 -11.583 -23.303  0.00  0.00    -0.773 OA
ATOM     10  H   UNL d   1       7.019 -11.825 -23.129  0.00  0.00     0.167 HD
ENDBRANCH   7   9
ENDBRANCH   1   7
BRANCH   2  11
ATOM     11  O   UNL d   1       9.112 -10.744 -26.026  0.00  0.00    -0.360 OA
ATOM     12  H   UNL d   1       9.815 -10.185 -26.417  0.00  0.00     0.217 HD
ENDBRANCH   2  11
TORSDOF 3
ENDMDL
MODEL 4
REMARK VINA RESULT:      -6.0      1.465      3.047
REMARK  3 active torsions:
REMARK  status: ('A' for Active; 'I' for Inactive)
REMARK    1  A    between atoms: C_1  and  O_3 
REMARK    2  A    between atoms: C_1  and  C_4 
REMARK    3  A    between atoms: C_5  and  O_10 
ROOT
ATOM      1  C   UNL d   1       7.102 -10.970 -24.886  0.00  0.00     0.070 A 
ATOM      2  C   UNL d   1       8.049 -10.516 -25.814  0.00  0.00     0.082 A 
ATOM      3  C   UNL d   1       9.053  -9.629 -25.423  0.00  0.00     0.037 A 
ATOM      4  C   UNL d   1       9.116  -9.182 -24.104  0.00  0.00     0.003 A 
ATOM      5  C   UNL d   1       8.175  -9.620 -23.173  0.00  0.00     0.001 A 
ATOM      6  C   UNL d   1       7.172 -10.512 -23.561  0.00  0.00     0.021 A 
ENDROOT
BRANCH   1   7
ATOM      7  C   UNL d   1       6.015 -11.925 -25.219  0.00  0.00     0.178 C 
ATOM      8  O   UNL d   1       5.389 -11.969 -26.261  0.00  0.00    -0.646 OA
BRANCH   7   9
ATOM      9  O   UNL d   1       5.750 -12.791 -24.217  0.00  0.00    -0.773 OA
ATOM     10  H   UNL d   1       6.426 -13.494 -24.348  0.00  0.00     0.167 HD
ENDBRANCH   7   9
ENDBRANCH   1   7
BRANCH   2  11
ATOM     11  O   UNL d   1       8.065 -10.889 -27.130  0.00  0.00    -0.360 OA
ATOM     12  H   UNL d   1       7.150 -11.138 -27.376  0.00  0.00     0.217 HD
ENDBRANCH   2  11
TORSDOF 3
ENDMDL
MODEL 5
REMARK VINA RESULT:      -5.9      1.024      2.185
REMARK  3 active torsions:
REMARK  status: ('A' for Active; 'I' for Inactive)
REMARK    1  A    between atoms: C_1  and  O_3 
REMARK    2  A    between atoms: C_1  and  C_4 
REMARK    3  A    between atoms: C_5  and  O_10 
ROOT
ATOM      1  C   UNL d   1       6.686 -10.956 -26.280  0.00  0.00     0.070 A 
ATOM      2  C   UNL d   1       7.836 -10.395 -25.708  0.00  0.00     0.082 A 
ATOM      3  C   UNL d   1       8.230 -10.753 -24.418  0.00  0.00     0.037 A 
ATOM      4  C   UNL d   1       7.476 -11.668 -23.685  0.00  0.00     0.003 A 
ATOM      5  C   UNL d   1       6.325 -12.227 -24.240  0.00  0.00     0.001 A 
ATOM      6  C   UNL d   1       5.931 -11.874 -25.534  0.00  0.00     0.021 A 
ENDROOT
BRANCH   1   7
ATOM      7  C   UNL d   1       6.210 -10.640 -27.650  0.00  0.00     0.178 C 
ATOM      8  O   UNL d   1       5.693 -11.418 -28.430  0.00  0.00    -0.646 OA
BRANCH   7   9
ATOM      9  O   UNL d   1       6.412  -9.350 -27.994  0.00  0.00    -0.773 OA
ATOM     10  H   UNL d   1       5.650  -8.888 -27.575  0.00  0.00     0.167 HD
ENDBRANCH   7   9
ENDBRANCH   1   7
BRANCH   2  11
ATOM     11  O   UNL d   1       8.635  -9.484 -26.342  0.00  0.00    -0.360 OA
ATOM     12  H   UNL d   1       9.532  -9.873 -26.402  0.00  0.00     0.217 HD
ENDBRANCH   2  11
TORSDOF 3
ENDMDL
MODEL 6
REMARK VINA RESULT:      -5.9      1.879      3.464
REMARK  3 active torsions:
REMARK  status: ('A' for Active; 'I' for Inactive)
REMARK    1  A    between atoms: C_1  and  O_3 
REMARK    2  A    between atoms: C_1  and  C_4 
REMARK    3  A    between atoms: C_5  and  O_10 
ROOT
ATOM      1  C   UNL d   1       6.173 -10.755 -25.217  0.00  0.00     0.070 A 
ATOM      2  C   UNL d   1       5.752 -10.800 -26.553  0.00  0.00     0.082 A 
ATOM      3  C   UNL d   1       5.640  -9.626 -27.299  0.00  0.00     0.037 A 
ATOM      4  C   UNL d   1       5.941  -8.395 -26.716  0.00  0.00     0.003 A 
ATOM      5  C   UNL d   1       6.353  -8.337 -25.385  0.00  0.00     0.001 A 
ATOM      6  C   UNL d   1       6.471  -9.512 -24.638  0.00  0.00     0.021 A 
ENDROOT
BRANCH   1   7
ATOM      7  C   UNL d   1       6.334 -11.958 -24.364  0.00  0.00     0.178 C 
ATOM      8  O   UNL d   1       5.721 -13.004 -24.470  0.00  0.00    -0.646 OA
BRANCH   7   9
ATOM      9  O   UNL d   1       7.261 -11.797 -23.395  0.00  0.00    -0.773 OA
ATOM     10  H   UNL d   1       6.728 -11.493 -22.626  0.00  0.00     0.167 HD
ENDBRANCH   7   9
ENDBRANCH   1   7
BRANCH   2  11
ATOM     11  O   UNL d   1       5.426 -11.954 -27.211  0.00  0.00    -0.360 OA
ATOM     12  H   UNL d   1       5.927 -12.683 -26.789  0.00  0.00     0.217 HD
ENDBRANCH   2  11
TORSDOF 3
ENDMDL
MODEL 7
REMARK VINA RESULT:      -5.9      0.898      2.627
REMARK  3 active torsions:
REMARK  status: ('A' for Active; 'I' for Inactive)
REMARK    1  A    between atoms: C_1  and  O_3 
REMARK    2  A    between atoms: C_1  and  C_4 
REMARK    3  A    between atoms: C_5  and  O_10 
ROOT
ATOM      1  C   UNL d   1       7.043 -10.793 -26.111  0.00  0.00     0.070 A 
ATOM      2  C   UNL d   1       7.892  -9.713 -26.386  0.00  0.00     0.082 A 
ATOM      3  C   UNL d   1       8.848  -9.311 -25.452  0.00  0.00     0.037 A 
ATOM      4  C   UNL d   1       8.960  -9.979 -24.234  0.00  0.00     0.003 A 
ATOM      5  C   UNL d   1       8.115 -11.051 -23.945  0.00  0.00     0.001 A 
ATOM      6  C   UNL d   1       7.161 -11.458 -24.881  0.00  0.00     0.021 A 
ENDROOT
BRANCH   1   7
ATOM      7  C   UNL d   1       6.013 -11.292 -27.057  0.00  0.00     0.178 C 
ATOM      8  O   UNL d   1       5.926 -11.015 -28.239  0.00  0.00    -0.646 OA
BRANCH   7   9
ATOM      9  O   UNL d   1       5.121 -12.121 -26.475  0.00  0.00    -0.773 OA
ATOM     10  H   UNL d   1       5.610 -12.457 -25.690  0.00  0.00     0.167 HD
ENDBRANCH   7   9
ENDBRANCH   1   7
BRANCH   2  11
ATOM     11  O   UNL d   1       7.855  -8.990 -27.546  0.00  0.00    -0.360 OA
ATOM     12  H   UNL d   1       6.947  -9.065 -27.909  0.00  0.00     0.217 HD
ENDBRANCH   2  11
TORSDOF 3
ENDMDL
MODEL 8
REMARK VINA RESULT:      -5.8      2.395      3.676
REMARK  3 active torsions:
REMARK  status: ('A' for Active; 'I' for Inactive)
REMARK    1  A    between atoms: C_1  and  O_3 
REMARK    2  A    between atoms: C_1  and  C_4 
REMARK    3  A    between atoms: C_5  and  O_10 
ROOT
ATOM      1  C   UNL d   1       7.916 -10.476 -24.465  0.00  0.00     0.070 A 
ATOM      2  C   UNL d   1       7.718 -10.494 -25.852  0.00  0.00     0.082 A 
ATOM      3  C   UNL d   1       6.842 -11.414 -26.429  0.00  0.00     0.037 A 
ATOM      4  C   UNL d   1       6.162 -12.330 -25.627  0.00  0.00     0.003 A 
ATOM      5  C   UNL d   1       6.357 -12.327 -24.246  0.00  0.00     0.001 A 
ATOM      6  C   UNL d   1       7.230 -11.403 -23.666  0.00  0.00     0.021 A 
ENDROOT
BRANCH   1   7
ATOM      7  C   UNL d   1       8.817  -9.519 -23.774  0.00  0.00     0.178 C 
ATOM      8  O   UNL d   1       9.639  -8.794 -24.302  0.00  0.00    -0.646 OA
BRANCH   7   9
ATOM      9  O   UNL d   1       8.653  -9.516 -22.433  0.00  0.00    -0.773 OA
ATOM     10  H   UNL d   1       7.991  -8.802 -22.293  0.00  0.00     0.167 HD
ENDBRANCH   7   9
ENDBRANCH   1   7
BRANCH   2  11
ATOM     11  O   UNL d   1       8.344  -9.644 -26.722  0.00  0.00    -0.360 OA
ATOM     12  H   UNL d   1       8.201  -9.992 -27.626  0.00  0.00     0.217 HD
ENDBRANCH   2  11
TORSDOF 3
ENDMDL
MODEL 9
REMARK VINA RESULT:      -5.8      2.495      3.756
REMARK  3 active torsions:
REMARK  status: ('A' for Active; 'I' for Inactive)
REMARK    1  A    between atoms: C_1  and  O_3 
REMARK    2  A    between atoms: C_1  and  C_4 
REMARK    3  A    between atoms: C_5  and  O_10 
ROOT
ATOM      1  C   UNL d   1       7.890  -9.219 -25.770  0.00  0.00     0.070 A 
ATOM      2  C   UNL d   1       7.286  -9.063 -27.025  0.00  0.00     0.082 A 
ATOM      3  C   UNL d   1       5.964  -8.626 -27.123  0.00  0.00     0.037 A 
ATOM      4  C   UNL d   1       5.232  -8.348 -25.970  0.00  0.00     0.003 A 
ATOM      5  C   UNL d   1       5.820  -8.508 -24.715  0.00  0.00     0.001 A 
ATOM      6  C   UNL d   1       7.144  -8.940 -24.615  0.00  0.00     0.021 A 
ENDROOT
BRANCH   1   7
ATOM      7  C   UNL d   1       9.294  -9.662 -25.582  0.00  0.00     0.178 C 
ATOM      8  O   UNL d   1      10.202  -9.001 -25.114  0.00  0.00    -0.646 OA
BRANCH   7   9
ATOM      9  O   UNL d   1       9.507 -10.928 -26.001  0.00  0.00    -0.773 OA
ATOM     10  H   UNL d   1       9.356 -11.459 -25.187  0.00  0.00     0.167 HD
ENDBRANCH   7   9
ENDBRANCH   1   7
BRANCH   2  11
ATOM     11  O   UNL d   1       7.917  -9.318 -28.212  0.00  0.00    -0.360 OA
ATOM     12  H   UNL d   1       8.725  -8.765 -28.238  0.00  0.00     0.217 HD
ENDBRANCH   2  11
TORSDOF 3
ENDMDL
