@<TRIPOS>MOLECULE
SAL
 16 16 0 0 0
SMALL
GASTEIGER

@<TRIPOS>ATOM
      1 C           1.0665   -0.0169   -0.0778 C.2     1  UNL1        0.3404
      2 O           0.3891    0.9931   -0.0914 O.2     1  UNL1       -0.2450
      3 O           0.4881   -1.2372   -0.0649 O.3     1  UNL1       -0.4770
      4 C           2.5495   -0.0803   -0.0658 C.ar    1  UNL1        0.1001
      5 C           3.2774   -1.2778   -0.0500 C.ar    1  UNL1        0.1308
      6 C           4.6718   -1.2578   -0.0230 C.ar    1  UNL1       -0.0194
      7 C           5.3541   -0.0416   -0.0193 C.ar    1  UNL1       -0.0583
      8 C           4.6422    1.1565   -0.0433 C.ar    1  UNL1       -0.0608
      9 C           3.2450    1.1388   -0.0649 C.ar    1  UNL1       -0.0442
     10 O           2.7015   -2.5194   -0.0608 O.3     1  UNL1       -0.5059
     11 H          -0.4731   -1.0257   -0.0592 H       1  UNL1        0.2954
     12 H           5.2252   -2.1933   -0.0047 H       1  UNL1        0.0654
     13 H           6.4412   -0.0308    0.0016 H       1  UNL1        0.0619
     14 H           5.1746    2.1049   -0.0435 H       1  UNL1        0.0618
     15 H           2.7017    2.0821   -0.0796 H       1  UNL1        0.0627
     16 H           1.7297   -2.3912   -0.0891 H       1  UNL1        0.2922
@<TRIPOS>BOND
     1     1     2    2
     2     1     3    1
     3     1     4    1
     4     3    11    1
     5     4     5   ar
     6     4     9   ar
     7     5     6   ar
     8     5    10    1
     9     6     7   ar
    10     6    12    1
    11     7     8   ar
    12     7    13    1
    13     8     9   ar
    14     8    14    1
    15     9    15    1
    16    10    16    1
