REMARK  3 active torsions:
REMARK  status: ('A' for Active; 'I' for Inactive)
REMARK    1  A    between atoms: C_1  and  O_3 
REMARK    2  A    between atoms: C_1  and  C_4 
REMARK    3  A    between atoms: C_5  and  O_10 
ROOT
ATOM      1  C   UNL d   1       2.550  -0.080  -0.066  0.00  0.00     0.070 A 
ATOM      2  C   UNL d   1       3.277  -1.278  -0.050  0.00  0.00     0.082 A 
ATOM      3  C   UNL d   1       4.672  -1.258  -0.023  0.00  0.00     0.037 A 
ATOM      4  C   UNL d   1       5.354  -0.042  -0.019  0.00  0.00     0.003 A 
ATOM      5  C   UNL d   1       4.642   1.157  -0.043  0.00  0.00     0.001 A 
ATOM      6  C   UNL d   1       3.245   1.139  -0.065  0.00  0.00     0.021 A 
ENDROOT
BRANCH   1   7
ATOM      7  C   UNL d   1       1.067  -0.017  -0.078  0.00  0.00     0.178 C 
ATOM      8  O   UNL d   1       0.389   0.993  -0.091  0.00  0.00    -0.646 OA
BRANCH   7   9
ATOM      9  O   UNL d   1       0.488  -1.237  -0.065  0.00  0.00    -0.773 OA
ATOM     10  H   UNL d   1      -0.473  -1.026  -0.059  0.00  0.00     0.167 HD
ENDBRANCH   7   9
ENDBRANCH   1   7
BRANCH   2  11
ATOM     11  O   UNL d   1       2.701  -2.519  -0.061  0.00  0.00    -0.360 OA
ATOM     12  H   UNL d   1       1.730  -2.391  -0.089  0.00  0.00     0.217 HD
ENDBRANCH   2  11
TORSDOF 3
