MODEL 1
REMARK VINA RESULT:      -6.1      0.000      0.000
REMARK  3 active torsions:
REMARK  status: ('A' for Active; 'I' for Inactive)
REMARK    1  A    between atoms: C_1  and  O_3 
REMARK    2  A    between atoms: C_1  and  C_4 
REMARK    3  A    between atoms: C_5  and  O_10 
ROOT
ATOM      1  C   UNL d   1       6.965 -10.622 -26.204  0.00  0.00     0.070 A 
ATOM      2  C   UNL d   1       6.197 -11.617 -25.582  0.00  0.00     0.082 A 
ATOM      3  C   UNL d   1       6.523 -12.064 -24.302  0.00  0.00     0.037 A 
ATOM      4  C   UNL d   1       7.622 -11.528 -23.631  0.00  0.00     0.003 A 
ATOM      5  C   UNL d   1       8.397 -10.544 -24.242  0.00  0.00     0.001 A 
ATOM      6  C   UNL d   1       8.070 -10.091 -25.522  0.00  0.00     0.021 A 
ENDROOT
BRANCH   1   7
ATOM      7  C   UNL d   1       6.677 -10.083 -27.556  0.00  0.00     0.178 C 
ATOM      8  O   UNL d   1       5.628 -10.189 -28.163  0.00  0.00    -0.646 OA
BRANCH   7   9
ATOM      9  O   UNL d   1       7.727  -9.433 -28.099  0.00  0.00    -0.773 OA
ATOM     10  H   UNL d   1       7.611  -9.597 -29.062  0.00  0.00     0.167 HD
ENDBRANCH   7   9
ENDBRANCH   1   7
BRANCH   2  11
ATOM     11  O   UNL d   1       5.106 -12.208 -26.159  0.00  0.00    -0.360 OA
ATOM     12  H   UNL d   1       5.083 -13.141 -25.856  0.00  0.00     0.217 HD
ENDBRANCH   2  11
TORSDOF 3
ENDMDL
MODEL 2
REMARK VINA RESULT:      -6.0      1.250      2.287
REMARK  3 active torsions:
REMARK  status: ('A' for Active; 'I' for Inactive)
REMARK    1  A    between atoms: C_1  and  O_3 
REMARK    2  A    between atoms: C_1  and  C_4 
REMARK    3  A    between atoms: C_5  and  O_10 
ROOT
ATOM      1  C   UNL d   1       7.006 -11.464 -26.395  0.00  0.00     0.070 A 
ATOM      2  C   UNL d   1       7.992 -10.752 -25.697  0.00  0.00     0.082 A 
ATOM      3  C   UNL d   1       8.101 -10.872 -24.312  0.00  0.00     0.037 A 
ATOM      4  C   UNL d   1       7.226 -11.698 -23.608  0.00  0.00     0.003 A 
ATOM      5  C   UNL d   1       6.237 -12.406 -24.290  0.00  0.00     0.001 A 
ATOM      6  C   UNL d   1       6.127 -12.291 -25.678  0.00  0.00     0.021 A 
ENDROOT
BRANCH   1   7
ATOM      7  C   UNL d   1       6.832 -11.403 -27.867  0.00  0.00     0.178 C 
ATOM      8  O   UNL d   1       5.789 -11.553 -28.474  0.00  0.00    -0.646 OA
BRANCH   7   9
ATOM      9  O   UNL d   1       7.986 -11.162 -28.525  0.00  0.00    -0.773 OA
ATOM     10  H   UNL d   1       7.712 -10.522 -29.220  0.00  0.00     0.167 HD
ENDBRANCH   7   9
ENDBRANCH   1   7
BRANCH   2  11
ATOM     11  O   UNL d   1       8.892  -9.914 -26.295  0.00  0.00    -0.360 OA
ATOM     12  H   UNL d   1       8.599  -8.995 -26.118  0.00  0.00     0.217 HD
ENDBRANCH   2  11
TORSDOF 3
ENDMDL
MODEL 3
REMARK VINA RESULT:      -6.0      1.705      3.179
REMARK  3 active torsions:
REMARK  status: ('A' for Active; 'I' for Inactive)
REMARK    1  A    between atoms: C_1  and  O_3 
REMARK    2  A    between atoms: C_1  and  C_4 
REMARK    3  A    between atoms: C_5  and  O_10 
ROOT
ATOM      1  C   UNL d   1       7.023 -11.034 -25.222  0.00  0.00     0.070 A 
ATOM      2  C   UNL d   1       7.996 -10.956 -24.215  0.00  0.00     0.082 A 
ATOM      3  C   UNL d   1       8.971  -9.960 -24.250  0.00  0.00     0.037 A 
ATOM      4  C   UNL d   1       8.989  -9.033 -25.292  0.00  0.00     0.003 A 
ATOM      5  C   UNL d   1       8.032  -9.104 -26.303  0.00  0.00     0.001 A 
ATOM      6  C   UNL d   1       7.052 -10.100 -26.268  0.00  0.00     0.021 A 
ENDROOT
BRANCH   1   7
ATOM      7  C   UNL d   1       5.946 -12.054 -25.251  0.00  0.00     0.178 C 
ATOM      8  O   UNL d   1       5.690 -12.853 -24.370  0.00  0.00    -0.646 OA
BRANCH   7   9
ATOM      9  O   UNL d   1       5.232 -12.034 -26.396  0.00  0.00    -0.773 OA
ATOM     10  H   UNL d   1       5.820 -11.542 -27.012  0.00  0.00     0.167 HD
ENDBRANCH   7   9
ENDBRANCH   1   7
BRANCH   2  11
ATOM     11  O   UNL d   1       8.066 -11.820 -23.156  0.00  0.00    -0.360 OA
ATOM     12  H   UNL d   1       7.148 -11.991 -22.856  0.00  0.00     0.217 HD
ENDBRANCH   2  11
TORSDOF 3
ENDMDL
MODEL 4
REMARK VINA RESULT:      -6.0      2.739      4.143
REMARK  3 active torsions:
REMARK  status: ('A' for Active; 'I' for Inactive)
REMARK    1  A    between atoms: C_1  and  O_3 
REMARK    2  A    between atoms: C_1  and  C_4 
REMARK    3  A    between atoms: C_5  and  O_10 
ROOT
ATOM      1  C   UNL d   1       7.427  -9.706 -24.631  0.00  0.00     0.070 A 
ATOM      2  C   UNL d   1       8.006  -9.991 -25.876  0.00  0.00     0.082 A 
ATOM      3  C   UNL d   1       7.476  -9.443 -27.043  0.00  0.00     0.037 A 
ATOM      4  C   UNL d   1       6.360  -8.610 -26.983  0.00  0.00     0.003 A 
ATOM      5  C   UNL d   1       5.770  -8.325 -25.752  0.00  0.00     0.001 A 
ATOM      6  C   UNL d   1       6.302  -8.869 -24.580  0.00  0.00     0.021 A 
ENDROOT
BRANCH   1   7
ATOM      7  C   UNL d   1       7.938 -10.237 -23.343  0.00  0.00     0.178 C 
ATOM      8  O   UNL d   1       8.308  -9.577 -22.391  0.00  0.00    -0.646 OA
BRANCH   7   9
ATOM      9  O   UNL d   1       7.972 -11.586 -23.305  0.00  0.00    -0.773 OA
ATOM     10  H   UNL d   1       7.097 -11.815 -22.916  0.00  0.00     0.167 HD
ENDBRANCH   7   9
ENDBRANCH   1   7
BRANCH   2  11
ATOM     11  O   UNL d   1       9.097 -10.800 -26.040  0.00  0.00    -0.360 OA
ATOM     12  H   UNL d   1       8.781 -11.728 -26.013  0.00  0.00     0.217 HD
ENDBRANCH   2  11
TORSDOF 3
ENDMDL
MODEL 5
REMARK VINA RESULT:      -6.0      1.453      3.045
REMARK  3 active torsions:
REMARK  status: ('A' for Active; 'I' for Inactive)
REMARK    1  A    between atoms: C_1  and  O_3 
REMARK    2  A    between atoms: C_1  and  C_4 
REMARK    3  A    between atoms: C_5  and  O_10 
ROOT
ATOM      1  C   UNL d   1       7.098 -10.961 -24.890  0.00  0.00     0.070 A 
ATOM      2  C   UNL d   1       8.036 -10.491 -25.820  0.00  0.00     0.082 A 
ATOM      3  C   UNL d   1       9.036  -9.602 -25.426  0.00  0.00     0.037 A 
ATOM      4  C   UNL d   1       9.108  -9.170 -24.102  0.00  0.00     0.003 A 
ATOM      5  C   UNL d   1       8.177  -9.625 -23.170  0.00  0.00     0.001 A 
ATOM      6  C   UNL d   1       7.176 -10.518 -23.560  0.00  0.00     0.021 A 
ENDROOT
BRANCH   1   7
ATOM      7  C   UNL d   1       6.013 -11.917 -25.224  0.00  0.00     0.178 C 
ATOM      8  O   UNL d   1       5.390 -11.959 -26.268  0.00  0.00    -0.646 OA
BRANCH   7   9
ATOM      9  O   UNL d   1       5.746 -12.783 -24.224  0.00  0.00    -0.773 OA
ATOM     10  H   UNL d   1       6.640 -12.988 -23.868  0.00  0.00     0.167 HD
ENDBRANCH   7   9
ENDBRANCH   1   7
BRANCH   2  11
ATOM     11  O   UNL d   1       8.045 -10.851 -27.139  0.00  0.00    -0.360 OA
ATOM     12  H   UNL d   1       7.113 -10.876 -27.443  0.00  0.00     0.217 HD
ENDBRANCH   2  11
TORSDOF 3
ENDMDL
MODEL 6
REMARK VINA RESULT:      -5.9      2.132      3.332
REMARK  3 active torsions:
REMARK  status: ('A' for Active; 'I' for Inactive)
REMARK    1  A    between atoms: C_1  and  O_3 
REMARK    2  A    between atoms: C_1  and  C_4 
REMARK    3  A    between atoms: C_5  and  O_10 
ROOT
ATOM      1  C   UNL d   1       8.344 -10.167 -24.879  0.00  0.00     0.070 A 
ATOM      2  C   UNL d   1       7.743 -10.452 -26.113  0.00  0.00     0.082 A 
ATOM      3  C   UNL d   1       6.756 -11.432 -26.208  0.00  0.00     0.037 A 
ATOM      4  C   UNL d   1       6.362 -12.142 -25.074  0.00  0.00     0.003 A 
ATOM      5  C   UNL d   1       6.957 -11.873 -23.843  0.00  0.00     0.001 A 
ATOM      6  C   UNL d   1       7.943 -10.888 -23.744  0.00  0.00     0.021 A 
ENDROOT
BRANCH   1   7
ATOM      7  C   UNL d   1       9.390  -9.131 -24.691  0.00  0.00     0.178 C 
ATOM      8  O   UNL d   1      10.295  -8.877 -25.462  0.00  0.00    -0.646 OA
BRANCH   7   9
ATOM      9  O   UNL d   1       9.261  -8.456 -23.529  0.00  0.00    -0.773 OA
ATOM     10  H   UNL d   1       9.332  -9.168 -22.854  0.00  0.00     0.167 HD
ENDBRANCH   7   9
ENDBRANCH   1   7
BRANCH   2  11
ATOM     11  O   UNL d   1       8.064  -9.816 -27.281  0.00  0.00    -0.360 OA
ATOM     12  H   UNL d   1       7.656  -8.924 -27.251  0.00  0.00     0.217 HD
ENDBRANCH   2  11
TORSDOF 3
ENDMDL
MODEL 7
REMARK VINA RESULT:      -5.9      1.901      3.480
REMARK  3 active torsions:
REMARK  status: ('A' for Active; 'I' for Inactive)
REMARK    1  A    between atoms: C_1  and  O_3 
REMARK    2  A    between atoms: C_1  and  C_4 
REMARK    3  A    between atoms: C_5  and  O_10 
ROOT
ATOM      1  C   UNL d   1       6.205 -10.769 -25.180  0.00  0.00     0.070 A 
ATOM      2  C   UNL d   1       5.831 -10.882 -26.527  0.00  0.00     0.082 A 
ATOM      3  C   UNL d   1       5.691  -9.743 -27.319  0.00  0.00     0.037 A 
ATOM      4  C   UNL d   1       5.918  -8.480 -26.776  0.00  0.00     0.003 A 
ATOM      5  C   UNL d   1       6.284  -8.353 -25.436  0.00  0.00     0.001 A 
ATOM      6  C   UNL d   1       6.428  -9.493 -24.641  0.00  0.00     0.021 A 
ENDROOT
BRANCH   1   7
ATOM      7  C   UNL d   1       6.388 -11.930 -24.275  0.00  0.00     0.178 C 
ATOM      8  O   UNL d   1       5.762 -12.972 -24.308  0.00  0.00    -0.646 OA
BRANCH   7   9
ATOM      9  O   UNL d   1       7.353 -11.732 -23.351  0.00  0.00    -0.773 OA
ATOM     10  H   UNL d   1       8.044 -11.249 -23.857  0.00  0.00     0.167 HD
ENDBRANCH   7   9
ENDBRANCH   1   7
BRANCH   2  11
ATOM     11  O   UNL d   1       5.581 -12.075 -27.149  0.00  0.00    -0.360 OA
ATOM     12  H   UNL d   1       5.264 -12.702 -26.465  0.00  0.00     0.217 HD
ENDBRANCH   2  11
TORSDOF 3
ENDMDL
MODEL 8
REMARK VINA RESULT:      -5.9      0.865      2.627
REMARK  3 active torsions:
REMARK  status: ('A' for Active; 'I' for Inactive)
REMARK    1  A    between atoms: C_1  and  O_3 
REMARK    2  A    between atoms: C_1  and  C_4 
REMARK    3  A    between atoms: C_5  and  O_10 
ROOT
ATOM      1  C   UNL d   1       6.917 -10.590 -26.033  0.00  0.00     0.070 A 
ATOM      2  C   UNL d   1       7.880  -9.623 -26.357  0.00  0.00     0.082 A 
ATOM      3  C   UNL d   1       8.849  -9.252 -25.425  0.00  0.00     0.037 A 
ATOM      4  C   UNL d   1       8.865  -9.837 -24.160  0.00  0.00     0.003 A 
ATOM      5  C   UNL d   1       7.909 -10.794 -23.823  0.00  0.00     0.001 A 
ATOM      6  C   UNL d   1       6.940 -11.171 -24.756  0.00  0.00     0.021 A 
ENDROOT
BRANCH   1   7
ATOM      7  C   UNL d   1       5.863 -11.050 -26.970  0.00  0.00     0.178 C 
ATOM      8  O   UNL d   1       5.618 -10.577 -28.063  0.00  0.00    -0.646 OA
BRANCH   7   9
ATOM      9  O   UNL d   1       5.146 -12.088 -26.489  0.00  0.00    -0.773 OA
ATOM     10  H   UNL d   1       5.134 -11.915 -25.521  0.00  0.00     0.167 HD
ENDBRANCH   7   9
ENDBRANCH   1   7
BRANCH   2  11
ATOM     11  O   UNL d   1       7.943  -8.989 -27.567  0.00  0.00    -0.360 OA
ATOM     12  H   UNL d   1       8.877  -8.725 -27.712  0.00  0.00     0.217 HD
ENDBRANCH   2  11
TORSDOF 3
ENDMDL
MODEL 9
REMARK VINA RESULT:      -5.7      2.189      3.240
REMARK  3 active torsions:
REMARK  status: ('A' for Active; 'I' for Inactive)
REMARK    1  A    between atoms: C_1  and  O_3 
REMARK    2  A    between atoms: C_1  and  C_4 
REMARK    3  A    between atoms: C_5  and  O_10 
ROOT
ATOM      1  C   UNL d   1       6.482 -10.042 -26.319  0.00  0.00     0.070 A 
ATOM      2  C   UNL d   1       7.241 -10.298 -27.470  0.00  0.00     0.082 A 
ATOM      3  C   UNL d   1       7.404 -11.603 -27.933  0.00  0.00     0.037 A 
ATOM      4  C   UNL d   1       6.816 -12.668 -27.251  0.00  0.00     0.003 A 
ATOM      5  C   UNL d   1       6.064 -12.427 -26.101  0.00  0.00     0.001 A 
ATOM      6  C   UNL d   1       5.896 -11.120 -25.637  0.00  0.00     0.021 A 
ENDROOT
BRANCH   1   7
ATOM      7  C   UNL d   1       6.250  -8.684 -25.770  0.00  0.00     0.178 C 
ATOM      8  O   UNL d   1       6.446  -8.329 -24.623  0.00  0.00    -0.646 OA
BRANCH   7   9
ATOM      9  O   UNL d   1       5.768  -7.819 -26.688  0.00  0.00    -0.773 OA
ATOM     10  H   UNL d   1       4.967  -8.281 -27.024  0.00  0.00     0.167 HD
ENDBRANCH   7   9
ENDBRANCH   1   7
BRANCH   2  11
ATOM     11  O   UNL d   1       7.862  -9.324 -28.204  0.00  0.00    -0.360 OA
ATOM     12  H   UNL d   1       8.801  -9.588 -28.306  0.00  0.00     0.217 HD
ENDBRANCH   2  11
TORSDOF 3
ENDMDL
