REMARK  3 active torsions:
REMARK  status: ('A' for Active; 'I' for Inactive)
REMARK    1  A    between atoms: C_1  and  O_3 
REMARK    2  A    between atoms: C_1  and  C_4 
REMARK    3  A    between atoms: C_5  and  O_10 
ROOT
ATOM      1  C   UNL d   1       2.491  -0.143  -0.005  0.00  0.00     0.070 A 
ATOM      2  C   UNL d   1       3.220  -1.341   0.011  0.00  0.00     0.082 A 
ATOM      3  C   UNL d   1       4.614  -1.319   0.036  0.00  0.00     0.037 A 
ATOM      4  C   UNL d   1       5.296  -0.103   0.040  0.00  0.00     0.003 A 
ATOM      5  C   UNL d   1       4.583   1.095   0.017  0.00  0.00     0.001 A 
ATOM      6  C   UNL d   1       3.186   1.076  -0.004  0.00  0.00     0.021 A 
ENDROOT
BRANCH   1   7
ATOM      7  C   UNL d   1       1.009  -0.080  -0.018  0.00  0.00     0.178 C 
ATOM      8  O   UNL d   1       0.333   0.931  -0.031  0.00  0.00    -0.646 OA
BRANCH   7   9
ATOM      9  O   UNL d   1       0.429  -1.299  -0.006  0.00  0.00    -0.773 OA
ATOM     10  H   UNL d   1      -0.531  -1.084  -0.003  0.00  0.00     0.167 HD
ENDBRANCH   7   9
ENDBRANCH   1   7
BRANCH   2  11
ATOM     11  O   UNL d   1       2.644  -2.582   0.003  0.00  0.00    -0.360 OA
ATOM     12  H   UNL d   1       1.672  -2.454  -0.023  0.00  0.00     0.217 HD
ENDBRANCH   2  11
TORSDOF 3
