@<TRIPOS>MOLECULE
SAL
 16 16 0 0 0
SMALL
GASTEIGER

@<TRIPOS>ATOM
      1 C           1.0090   -0.0795   -0.0178 C.2     1  UNL1        0.3404
      2 O           0.3325    0.9311   -0.0314 O.2     1  UNL1       -0.2450
      3 O           0.4292   -1.2989   -0.0061 O.3     1  UNL1       -0.4770
      4 C           2.4915   -0.1434   -0.0049 C.ar    1  UNL1        0.1001
      5 C           3.2202   -1.3405    0.0114 C.ar    1  UNL1        0.1308
      6 C           4.6145   -1.3195    0.0362 C.ar    1  UNL1       -0.0194
      7 C           5.2958   -0.1027    0.0396 C.ar    1  UNL1       -0.0583
      8 C           4.5833    1.0951    0.0168 C.ar    1  UNL1       -0.0608
      9 C           3.1862    1.0762   -0.0045 C.ar    1  UNL1       -0.0442
     10 O           2.6440   -2.5821    0.0034 O.3     1  UNL1       -0.5059
     11 H          -0.5311   -1.0843   -0.0032 H       1  UNL1        0.2954
     12 H           5.1688   -2.2544    0.0532 H       1  UNL1        0.0654
     13 H           6.3828   -0.0908    0.0597 H       1  UNL1        0.0619
     14 H           5.1147    2.0441    0.0172 H       1  UNL1        0.0618
     15 H           2.6420    2.0190   -0.0192 H       1  UNL1        0.0627
     16 H           1.6722   -2.4540   -0.0229 H       1  UNL1        0.2922
@<TRIPOS>BOND
     1     1     2    2
     2     1     3    1
     3     1     4    1
     4     3    11    1
     5     4     5   ar
     6     4     9   ar
     7     5     6   ar
     8     5    10    1
     9     6     7   ar
    10     6    12    1
    11     7     8   ar
    12     7    13    1
    13     8     9   ar
    14     8    14    1
    15     9    15    1
    16    10    16    1
