REMARK  3 active torsions:
REMARK  status: ('A' for Active; 'I' for Inactive)
REMARK    1  A    between atoms: C_1  and  O_3 
REMARK    2  A    between atoms: C_1  and  C_4 
REMARK    3  A    between atoms: C_5  and  O_10 
ROOT
ATOM      1  C   UNL d   1       2.444   0.021   0.065  0.00  0.00     0.070 A 
ATOM      2  C   UNL d   1       3.173  -1.177   0.082  0.00  0.00     0.082 A 
ATOM      3  C   UNL d   1       4.567  -1.157   0.108  0.00  0.00     0.037 A 
ATOM      4  C   UNL d   1       5.249   0.060   0.111  0.00  0.00     0.003 A 
ATOM      5  C   UNL d   1       4.538   1.258   0.087  0.00  0.00     0.001 A 
ATOM      6  C   UNL d   1       3.140   1.240   0.066  0.00  0.00     0.021 A 
ENDROOT
BRANCH   1   7
ATOM      7  C   UNL d   1       0.962   0.084   0.053  0.00  0.00     0.178 C 
ATOM      8  O   UNL d   1       0.284   1.094   0.039  0.00  0.00    -0.646 OA
BRANCH   7   9
ATOM      9  O   UNL d   1       0.383  -1.137   0.066  0.00  0.00    -0.773 OA
ATOM     10  H   UNL d   1      -0.578  -0.925   0.071  0.00  0.00     0.167 HD
ENDBRANCH   7   9
ENDBRANCH   1   7
BRANCH   2  11
ATOM     11  O   UNL d   1       2.597  -2.419   0.072  0.00  0.00    -0.360 OA
ATOM     12  H   UNL d   1       1.625  -2.291   0.043  0.00  0.00     0.217 HD
ENDBRANCH   2  11
TORSDOF 3
