@<TRIPOS>MOLECULE
SAL
 16 16 0 0 0
SMALL
GASTEIGER

@<TRIPOS>ATOM
      1 C           0.9616    0.0838    0.0531 C.2     1  UNL1        0.3404
      2 O           0.2844    1.0936    0.0389 O.2     1  UNL1       -0.2450
      3 O           0.3831   -1.1366    0.0662 O.3     1  UNL1       -0.4770
      4 C           2.4444    0.0205    0.0654 C.ar    1  UNL1        0.1001
      5 C           3.1729   -1.1768    0.0815 C.ar    1  UNL1        0.1308
      6 C           4.5673   -1.1567    0.1078 C.ar    1  UNL1       -0.0194
      7 C           5.2493    0.0597    0.1111 C.ar    1  UNL1       -0.0583
      8 C           4.5376    1.2578    0.0873 C.ar    1  UNL1       -0.0608
      9 C           3.1401    1.2398    0.0661 C.ar    1  UNL1       -0.0442
     10 O           2.5972   -2.4186    0.0719 O.3     1  UNL1       -0.5059
     11 H          -0.5779   -0.9249    0.0713 H       1  UNL1        0.2954
     12 H           5.1208   -2.0919    0.1259 H       1  UNL1        0.0654
     13 H           6.3364    0.0705    0.1318 H       1  UNL1        0.0619
     14 H           5.0698    2.2061    0.0868 H       1  UNL1        0.0618
     15 H           2.5967    2.1832    0.0511 H       1  UNL1        0.0627
     16 H           1.6255   -2.2907    0.0435 H       1  UNL1        0.2922
@<TRIPOS>BOND
     1     1     2    2
     2     1     3    1
     3     1     4    1
     4     3    11    1
     5     4     5   ar
     6     4     9   ar
     7     5     6   ar
     8     5    10    1
     9     6     7   ar
    10     6    12    1
    11     7     8   ar
    12     7    13    1
    13     8     9   ar
    14     8    14    1
    15     9    15    1
    16    10    16    1
