MODEL 1
REMARK VINA RESULT:      -4.0      0.000      0.000
REMARK  2 active torsions:
REMARK  status: ('A' for Active; 'I' for Inactive)
REMARK    1  A    between atoms: C_1  and  O_3 
REMARK    2  A    between atoms: C_1  and  C_4 
ROOT
ATOM      1  C   UNL d   1       7.683 -10.757 -27.594  0.00  0.00     0.213 C 
ATOM      2  O   UNL d   1       8.673 -11.251 -27.090  0.00  0.00    -0.644 OA
ENDROOT
BRANCH   1   3
ATOM      3  O   UNL d   1       7.688  -9.545 -28.158  0.00  0.00    -0.771 OA
ATOM      4  H   UNL d   1       6.910  -9.079 -27.794  0.00  0.00     0.168 HD
ENDBRANCH   1   3
BRANCH   1   5
ATOM      5  C   UNL d   1       6.314 -11.452 -27.647  0.00  0.00     0.218 C 
ATOM      6  O   UNL d   1       5.765 -11.692 -28.714  0.00  0.00    -0.286 OA
ATOM      7  C   UNL d   1       5.717 -11.808 -26.318  0.00  0.00     0.103 C 
ENDBRANCH   1   5
TORSDOF 2
ENDMDL
MODEL 2
REMARK VINA RESULT:      -4.0      3.755      4.386
REMARK  2 active torsions:
REMARK  status: ('A' for Active; 'I' for Inactive)
REMARK    1  A    between atoms: C_1  and  O_3 
REMARK    2  A    between atoms: C_1  and  C_4 
ROOT
ATOM      1  C   UNL d   1       9.409  -9.191 -24.421  0.00  0.00     0.213 C 
ATOM      2  O   UNL d   1      10.131  -8.909 -25.358  0.00  0.00    -0.644 OA
ENDROOT
BRANCH   1   3
ATOM      3  O   UNL d   1       9.202  -8.361 -23.394  0.00  0.00    -0.771 OA
ATOM      4  H   UNL d   1       8.918  -7.513 -23.790  0.00  0.00     0.168 HD
ENDBRANCH   1   3
BRANCH   1   5
ATOM      5  C   UNL d   1       8.652 -10.522 -24.297  0.00  0.00     0.218 C 
ATOM      6  O   UNL d   1       8.187 -10.890 -23.227  0.00  0.00    -0.286 OA
ATOM      7  C   UNL d   1       8.530 -11.318 -25.562  0.00  0.00     0.103 C 
ENDBRANCH   1   5
TORSDOF 2
ENDMDL
MODEL 3
REMARK VINA RESULT:      -4.0      1.139      2.589
REMARK  2 active torsions:
REMARK  status: ('A' for Active; 'I' for Inactive)
REMARK    1  A    between atoms: C_1  and  O_3 
REMARK    2  A    between atoms: C_1  and  C_4 
ROOT
ATOM      1  C   UNL d   1       6.159 -11.683 -27.636  0.00  0.00     0.213 C 
ATOM      2  O   UNL d   1       5.480 -12.061 -26.701  0.00  0.00    -0.644 OA
ENDROOT
BRANCH   1   3
ATOM      3  O   UNL d   1       5.738 -11.741 -28.904  0.00  0.00    -0.771 OA
ATOM      4  H   UNL d   1       4.900 -12.247 -28.883  0.00  0.00     0.168 HD
ENDBRANCH   1   3
BRANCH   1   5
ATOM      5  C   UNL d   1       7.571 -11.098 -27.486  0.00  0.00     0.218 C 
ATOM      6  O   UNL d   1       7.921 -10.112 -28.120  0.00  0.00    -0.286 OA
ATOM      7  C   UNL d   1       8.469 -11.815 -26.521  0.00  0.00     0.103 C 
ENDBRANCH   1   5
TORSDOF 2
ENDMDL
MODEL 4
REMARK VINA RESULT:      -3.9      0.404      1.354
REMARK  2 active torsions:
REMARK  status: ('A' for Active; 'I' for Inactive)
REMARK    1  A    between atoms: C_1  and  O_3 
REMARK    2  A    between atoms: C_1  and  C_4 
ROOT
ATOM      1  C   UNL d   1       7.727 -10.875 -27.632  0.00  0.00     0.213 C 
ATOM      2  O   UNL d   1       7.816  -9.773 -28.138  0.00  0.00    -0.644 OA
ENDROOT
BRANCH   1   3
ATOM      3  O   UNL d   1       8.736 -11.448 -26.968  0.00  0.00    -0.771 OA
ATOM      4  H   UNL d   1       8.385 -12.296 -26.630  0.00  0.00     0.168 HD
ENDBRANCH   1   3
BRANCH   1   5
ATOM      5  C   UNL d   1       6.460 -11.742 -27.689  0.00  0.00     0.218 C 
ATOM      6  O   UNL d   1       5.762 -11.779 -28.693  0.00  0.00    -0.286 OA
ATOM      7  C   UNL d   1       6.154 -12.524 -26.447  0.00  0.00     0.103 C 
ENDBRANCH   1   5
TORSDOF 2
ENDMDL
MODEL 5
REMARK VINA RESULT:      -3.9      1.486      2.042
REMARK  2 active torsions:
REMARK  status: ('A' for Active; 'I' for Inactive)
REMARK    1  A    between atoms: C_1  and  O_3 
REMARK    2  A    between atoms: C_1  and  C_4 
ROOT
ATOM      1  C   UNL d   1       6.731 -11.410 -27.888  0.00  0.00     0.213 C 
ATOM      2  O   UNL d   1       7.750 -10.819 -28.186  0.00  0.00    -0.644 OA
ENDROOT
BRANCH   1   3
ATOM      3  O   UNL d   1       5.813 -11.769 -28.792  0.00  0.00    -0.771 OA
ATOM      4  H   UNL d   1       5.916 -12.735 -28.906  0.00  0.00     0.168 HD
ENDBRANCH   1   3
BRANCH   1   5
ATOM      5  C   UNL d   1       6.367 -11.817 -26.452  0.00  0.00     0.218 C 
ATOM      6  O   UNL d   1       5.230 -12.158 -26.157  0.00  0.00    -0.286 OA
ATOM      7  C   UNL d   1       7.491 -11.764 -25.460  0.00  0.00     0.103 C 
ENDBRANCH   1   5
TORSDOF 2
ENDMDL
MODEL 6
REMARK VINA RESULT:      -3.8      3.816      4.893
REMARK  2 active torsions:
REMARK  status: ('A' for Active; 'I' for Inactive)
REMARK    1  A    between atoms: C_1  and  O_3 
REMARK    2  A    between atoms: C_1  and  C_4 
ROOT
ATOM      1  C   UNL d   1       8.204 -11.073 -24.025  0.00  0.00     0.213 C 
ATOM      2  O   UNL d   1       7.736 -11.788 -23.160  0.00  0.00    -0.644 OA
ENDROOT
BRANCH   1   3
ATOM      3  O   UNL d   1       8.144 -11.378 -25.325  0.00  0.00    -0.771 OA
ATOM      4  H   UNL d   1       9.008 -11.114 -25.700  0.00  0.00     0.168 HD
ENDBRANCH   1   3
BRANCH   1   5
ATOM      5  C   UNL d   1       8.916  -9.742 -23.739  0.00  0.00     0.218 C 
ATOM      6  O   UNL d   1       8.836  -9.201 -22.645  0.00  0.00    -0.286 OA
ATOM      7  C   UNL d   1       9.702  -9.170 -24.882  0.00  0.00     0.103 C 
ENDBRANCH   1   5
TORSDOF 2
ENDMDL
MODEL 7
REMARK VINA RESULT:      -3.8      1.969      2.104
REMARK  2 active torsions:
REMARK  status: ('A' for Active; 'I' for Inactive)
REMARK    1  A    between atoms: C_1  and  O_3 
REMARK    2  A    between atoms: C_1  and  C_4 
ROOT
ATOM      1  C   UNL d   1       7.491  -9.654 -27.449  0.00  0.00     0.213 C 
ATOM      2  O   UNL d   1       8.280  -8.938 -26.863  0.00  0.00    -0.644 OA
ENDROOT
BRANCH   1   3
ATOM      3  O   UNL d   1       7.879 -10.655 -28.246  0.00  0.00    -0.771 OA
ATOM      4  H   UNL d   1       7.071 -10.954 -28.710  0.00  0.00     0.168 HD
ENDBRANCH   1   3
BRANCH   1   5
ATOM      5  C   UNL d   1       5.965  -9.504 -27.352  0.00  0.00     0.218 C 
ATOM      6  O   UNL d   1       5.214 -10.224 -27.996  0.00  0.00    -0.286 OA
ATOM      7  C   UNL d   1       5.478  -8.429 -26.427  0.00  0.00     0.103 C 
ENDBRANCH   1   5
TORSDOF 2
ENDMDL
MODEL 8
REMARK VINA RESULT:      -3.8      1.577      2.849
REMARK  2 active torsions:
REMARK  status: ('A' for Active; 'I' for Inactive)
REMARK    1  A    between atoms: C_1  and  O_3 
REMARK    2  A    between atoms: C_1  and  C_4 
ROOT
ATOM      1  C   UNL d   1       5.908 -11.312 -27.591  0.00  0.00     0.213 C 
ATOM      2  O   UNL d   1       5.823 -11.813 -28.695  0.00  0.00    -0.644 OA
ENDROOT
BRANCH   1   3
ATOM      3  O   UNL d   1       5.290 -11.817 -26.519  0.00  0.00    -0.771 OA
ATOM      4  H   UNL d   1       5.983 -12.279 -26.005  0.00  0.00     0.168 HD
ENDBRANCH   1   3
BRANCH   1   5
ATOM      5  C   UNL d   1       6.727 -10.048 -27.287  0.00  0.00     0.218 C 
ATOM      6  O   UNL d   1       7.947 -10.042 -27.387  0.00  0.00    -0.286 OA
ATOM      7  C   UNL d   1       5.932  -8.847 -26.869  0.00  0.00     0.103 C 
ENDBRANCH   1   5
TORSDOF 2
ENDMDL
MODEL 9
REMARK VINA RESULT:      -3.8      3.352      4.359
REMARK  2 active torsions:
REMARK  status: ('A' for Active; 'I' for Inactive)
REMARK    1  A    between atoms: C_1  and  O_3 
REMARK    2  A    between atoms: C_1  and  C_4 
ROOT
ATOM      1  C   UNL d   1       6.143 -11.719 -24.807  0.00  0.00     0.213 C 
ATOM      2  O   UNL d   1       5.754 -11.240 -25.855  0.00  0.00    -0.644 OA
ENDROOT
BRANCH   1   3
ATOM      3  O   UNL d   1       5.702 -12.891 -24.340  0.00  0.00    -0.771 OA
ATOM      4  H   UNL d   1       5.799 -12.844 -23.368  0.00  0.00     0.168 HD
ENDBRANCH   1   3
BRANCH   1   5
ATOM      5  C   UNL d   1       7.179 -11.046 -23.893  0.00  0.00     0.218 C 
ATOM      6  O   UNL d   1       7.944 -11.708 -23.205  0.00  0.00    -0.286 OA
ATOM      7  C   UNL d   1       7.181  -9.546 -23.911  0.00  0.00     0.103 C 
ENDBRANCH   1   5
TORSDOF 2
ENDMDL
