REMARK  2 active torsions:
REMARK  status: ('A' for Active; 'I' for Inactive)
REMARK    1  A    between atoms: C_1  and  O_3 
REMARK    2  A    between atoms: C_1  and  C_4 
ROOT
ATOM      1  C   UNL d   1       0.900   0.031   0.023  0.00  0.00     0.213 C 
ATOM      2  O   UNL d   1       0.247   0.723  -0.734  0.00  0.00    -0.644 OA
ENDROOT
BRANCH   1   3
ATOM      3  O   UNL d   1       0.339  -0.787   0.919  0.00  0.00    -0.771 OA
ATOM      4  H   UNL d   1      -0.627  -0.683   0.806  0.00  0.00     0.168 HD
ENDBRANCH   1   3
BRANCH   1   5
ATOM      5  C   UNL d   1       2.436   0.008   0.049  0.00  0.00     0.218 C 
ATOM      6  O   UNL d   1       3.047  -0.708   0.831  0.00  0.00    -0.286 OA
ATOM      7  C   UNL d   1       3.114   0.911  -0.938  0.00  0.00     0.103 C 
ENDBRANCH   1   5
TORSDOF 2
