@<TRIPOS>MOLECULE
PYR
 10 9 0 0 0
SMALL
GASTEIGER

@<TRIPOS>ATOM
      1 C           0.8996    0.0312    0.0230 C.2     1  UNL1        0.3723
      2 O           0.2471    0.7228   -0.7339 O.2     1  UNL1       -0.2419
      3 O           0.3389   -0.7872    0.9190 O.3     1  UNL1       -0.4751
      4 C           2.4356    0.0078    0.0488 C.2     1  UNL1        0.2360
      5 O           3.0470   -0.7084    0.8311 O.2     1  UNL1       -0.2854
      6 C           3.1139    0.9113   -0.9378 C.3     1  UNL1        0.0052
      7 H          -0.6268   -0.6833    0.8056 H       1  UNL1        0.2955
      8 H           2.8372    0.6259   -1.9555 H       1  UNL1        0.0311
      9 H           2.8372    1.9502   -0.7427 H       1  UNL1        0.0311
     10 H           4.1983    0.8132   -0.8305 H       1  UNL1        0.0311
@<TRIPOS>BOND
     1     1     2    2
     2     1     3    1
     3     1     4    1
     4     3     7    1
     5     4     5    2
     6     4     6    1
     7     6     8    1
     8     6     9    1
     9     6    10    1
