FOL
  -OEChem-08262215483D

 51 53  0     1  0  0  0  0  0999 V2000
    9.9550   57.9950   30.2000 N   0  0  0  0  0  0  0  0  0  0  0  0
    9.9060   57.0550   29.2240 C   0  0  0  0  0  0  0  0  0  0  0  0
   10.7520   57.2220   28.2850 N   0  0  0  0  0  0  0  0  0  0  0  0
    8.9780   56.0900   29.2360 N   0  0  0  0  0  0  0  0  0  0  0  0
    8.1770   55.9920   30.2770 C   0  0  0  0  0  0  0  0  0  0  0  0
    7.2840   55.0480   30.3960 O   0  0  0  0  0  0  0  0  0  0  0  0
    8.2420   56.9320   31.4110 C   0  0  0  0  0  0  0  0  0  0  0  0
    7.4390   56.7840   32.4780 N   0  0  0  0  0  0  0  0  0  0  0  0
    7.5780   57.7330   33.3950 C   0  0  0  0  0  0  0  0  0  0  0  0
    8.5110   58.7510   33.2550 C   0  0  0  0  0  0  0  0  0  0  0  0
    9.3450   58.8640   32.2440 N   0  0  0  0  0  0  0  0  0  0  0  0
    9.1730   57.9600   31.3000 C   0  0  0  0  0  0  0  0  0  0  0  0
    6.6870   57.7000   34.6370 C   0  0  0  0  0  0  0  0  0  0  0  0
    6.0220   56.4710   34.8310 N   0  0  0  0  0  0  0  0  0  0  0  0
    7.7340   52.6350   35.4050 C   0  0  0  0  0  0  0  0  0  0  0  0
    6.3660   52.8380   35.4770 C   0  0  0  0  0  0  0  0  0  0  0  0
    5.8230   54.1210   35.3220 C   0  0  0  0  0  0  0  0  0  0  0  0
    6.6300   55.2430   35.0590 C   0  0  0  0  0  0  0  0  0  0  0  0
    8.0050   55.0100   35.0190 C   0  0  0  0  0  0  0  0  0  0  0  0
    8.5010   53.7580   35.2200 C   0  0  0  0  0  0  0  0  0  0  0  0
    8.3250   51.3020   35.5800 C   0  0  0  0  0  0  0  0  0  0  0  0
    7.7100   50.2380   35.7750 O   0  0  0  0  0  0  0  0  0  0  0  0
    9.6080   51.0940   35.6120 N   0  0  0  0  0  0  0  0  0  0  0  0
   10.2990   49.8670   35.8820 C   0  0  1  0  0  0  0  0  0  0  0  0
   10.3080   48.9000   34.6850 C   0  0  0  0  0  0  0  0  0  0  0  0
    8.9660   48.2470   34.5390 C   0  0  0  0  0  0  0  0  0  0  0  0
    9.1660   47.1060   33.6290 C   0  0  0  0  0  0  0  0  0  0  0  0
   10.2120   46.5580   33.1080 O   0  0  0  0  0  0  0  0  0  0  0  0
    8.1660   46.3930   33.2070 O   0  0  0  0  0  0  0  0  0  0  0  0
   11.7470   50.2160   36.2450 C   0  0  0  0  0  0  0  0  0  0  0  0
   12.2510   49.3340   36.9530 O   0  0  0  0  0  0  0  0  0  0  0  0
   12.1990   51.2160   35.7280 O   0  0  0  0  0  0  0  0  0  0  0  0
    9.8140   58.9020   29.7550 H   0  0  0  0  0  0  0  0  0  0  0  0
   10.7150   56.5140   27.5500 H   0  0  0  0  0  0  0  0  0  0  0  0
   11.6950   57.2890   28.6650 H   0  0  0  0  0  0  0  0  0  0  0  0
    8.5970   59.5430   34.0170 H   0  0  0  0  0  0  0  0  0  0  0  0
    7.2700   57.9770   35.5450 H   0  0  0  0  0  0  0  0  0  0  0  0
    5.9560   58.5420   34.6180 H   0  0  0  0  0  0  0  0  0  0  0  0
    5.4090   56.3440   34.0250 H   0  0  0  0  0  0  0  0  0  0  0  0
    5.7050   51.9730   35.6580 H   0  0  0  0  0  0  0  0  0  0  0  0
    4.7310   54.2510   35.4090 H   0  0  0  0  0  0  0  0  0  0  0  0
    8.7140   55.8320   34.8240 H   0  0  0  0  0  0  0  0  0  0  0  0
    9.5980   53.6450   35.2330 H   0  0  0  0  0  0  0  0  0  0  0  0
   10.1100   51.9580   35.4100 H   0  0  0  0  0  0  0  0  0  0  0  0
    9.7650   49.3480   36.7120 H   0  0  0  0  0  0  0  0  0  0  0  0
   10.6310   49.4030   33.7440 H   0  0  0  0  0  0  0  0  0  0  0  0
   11.1300   48.1500   34.7600 H   0  0  0  0  0  0  0  0  0  0  0  0
    8.5010   47.9630   35.5120 H   0  0  0  0  0  0  0  0  0  0  0  0
    8.1640   48.9460   34.2050 H   0  0  0  0  0  0  0  0  0  0  0  0
    8.2950   45.6570   32.6200 H   0  0  0  0  0  0  0  0  0  0  0  0
   13.0960   51.4320   35.9520 H   0  0  0  0  0  0  0  0  0  0  0  0
  1  2  1  0  0  0  0
  1 12  1  0  0  0  0
  1 33  1  0  0  0  0
  2  3  1  0  0  0  0
  2  4  2  0  0  0  0
  3 34  1  0  0  0  0
  3 35  1  0  0  0  0
  4  5  1  0  0  0  0
  5  6  2  0  0  0  0
  5  7  1  0  0  0  0
  7  8  1  0  0  0  0
  7 12  2  0  0  0  0
  8  9  2  0  0  0  0
  9 10  1  0  0  0  0
  9 13  1  0  0  0  0
 10 11  2  0  0  0  0
 10 36  1  0  0  0  0
 11 12  1  0  0  0  0
 13 14  1  0  0  0  0
 13 37  1  0  0  0  0
 13 38  1  0  0  0  0
 14 18  1  0  0  0  0
 14 39  1  0  0  0  0
 15 16  2  0  0  0  0
 15 20  1  0  0  0  0
 15 21  1  0  0  0  0
 16 17  1  0  0  0  0
 16 40  1  0  0  0  0
 17 18  2  0  0  0  0
 17 41  1  0  0  0  0
 18 19  1  0  0  0  0
 19 20  2  0  0  0  0
 19 42  1  0  0  0  0
 20 43  1  0  0  0  0
 21 22  2  0  0  0  0
 21 23  1  0  0  0  0
 23 24  1  0  0  0  0
 23 44  1  0  0  0  0
 24 25  1  0  0  0  0
 24 30  1  0  0  0  0
 24 45  1  0  0  0  0
 25 26  1  0  0  0  0
 25 46  1  0  0  0  0
 25 47  1  0  0  0  0
 26 27  1  0  0  0  0
 26 48  1  0  0  0  0
 26 49  1  0  0  0  0
 27 28  2  0  0  0  0
 27 29  1  0  0  0  0
 29 50  1  0  0  0  0
 30 31  2  0  0  0  0
 30 32  1  0  0  0  0
 32 51  1  0  0  0  0
M  END
> <OPENEYE_ISO_SMILES>
c1cc(ccc1C(=O)N[C@@H](CCC(=O)O)C(=O)O)NCc2cnc3c(n2)c(=O)nc([nH]3)N

> <OPENEYE_INCHI>
InChI=1S/C19H19N7O6/c20-19-25-15-14(17(30)26-19)23-11(8-22-15)7-21-10-3-1-9(2-4-10)16(29)24-12(18(31)32)5-6-13(27)28/h1-4,8,12,21H,5-7H2,(H,24,29)(H,27,28)(H,31,32)(H3,20,22,25,26,30)/t12-/m0/s1

> <OPENEYE_INCHIKEY>
OVBPIULPVIDEAO-LBPRGKRZSA-N

> <FORMULA>
C19H19N7O6

$$$$
