REMARK  17 active torsions:
REMARK  status: ('A' for Active; 'I' for Inactive)
REMARK    1  A    between atoms: C_6  and  N_7 
REMARK    2  A    between atoms: N_10  and  C_11 
REMARK    3  A    between atoms: C_12  and  O_13 
REMARK    4  A    between atoms: C_14  and  O_15 
REMARK    5  A    between atoms: C_17  and  C_18 
REMARK    6  A    between atoms: C_18  and  O_19 
REMARK    7  A    between atoms: P_20  and  O_19 
REMARK    8  A    between atoms: P_20  and  O_22 
REMARK    9  A    between atoms: P_20  and  O_23 
REMARK   10  A    between atoms: P_24  and  O_23 
REMARK   11  A    between atoms: P_24  and  O_26 
REMARK   12  A    between atoms: P_24  and  O_27 
REMARK   13  A    between atoms: O_27  and  C_28 
REMARK   14  A    between atoms: C_28  and  C_36 
REMARK   15  A    between atoms: C_31  and  O_30 
REMARK   16  A    between atoms: O_32  and  C_33 
REMARK   17  A    between atoms: O_34  and  C_35 
ROOT
ATOM      1  O   UNL d   1      -4.121   2.537  -2.200  0.00  0.00    -0.294 OA
ENDROOT
BRANCH   1   2
ATOM      2  C   UNL d   1      -3.841   1.190  -1.820  0.00  0.00     0.215 C 
BRANCH   2   3
ATOM      3  C   UNL d   1      -5.022   0.252  -2.054  0.00  0.00     0.180 C 
ATOM      4  C   UNL d   1      -5.454   0.167  -3.513  0.00  0.00     0.182 C 
ATOM      5  C   UNL d   1      -6.584   1.179  -3.608  0.00  0.00     0.198 C 
ATOM      6  C   UNL d   1      -7.224   1.042  -2.227  0.00  0.00     0.262 C 
ATOM      7  O   UNL d   1      -6.173   0.688  -1.300  0.00  0.00    -0.353 OA
BRANCH   4   8
ATOM      8  O   UNL d   1      -5.995  -1.137  -3.821  0.00  0.00    -0.390 OA
ATOM      9  H   UNL d   1      -6.305  -1.557  -2.997  0.00  0.00     0.210 HD
ENDBRANCH   4   8
BRANCH   5  10
ATOM     10  O   UNL d   1      -7.458   0.853  -4.689  0.00  0.00    -0.388 OA
ATOM     11  H   UNL d   1      -7.348  -0.109  -4.850  0.00  0.00     0.210 HD
ENDBRANCH   5  10
BRANCH   6  12
ATOM     12  N   UNL d   1      -7.900   2.232  -1.761  0.00  0.00    -0.294 N 
ATOM     13  C   UNL d   1      -9.228   2.301  -1.448  0.00  0.00     0.166 A 
ATOM     14  N   UNL d   1     -10.142   1.321  -1.520  0.00  0.00    -0.222 NA
ATOM     15  C   UNL d   1      -9.431   3.604  -1.026  0.00  0.00     0.144 A 
ATOM     16  C   UNL d   1     -11.354   1.759  -1.126  0.00  0.00     0.237 A 
ATOM     17  N   UNL d   1     -11.697   2.987  -0.682  0.00  0.00    -0.228 NA
ATOM     18  C   UNL d   1     -10.739   3.942  -0.635  0.00  0.00     0.135 A 
ATOM     19  N   UNL d   1      -8.253   4.322  -1.073  0.00  0.00    -0.236 NA
ATOM     20  C   UNL d   1      -7.356   3.465  -1.520  0.00  0.00     0.214 A 
BRANCH  18  21
ATOM     21  N   UNL d   1     -11.100   5.201  -0.166  0.00  0.00    -0.285 NA
ATOM     22  H   UNL d   1     -10.310   5.725   0.196  0.00  0.00     0.125 HD
ATOM     23  H   UNL d   1     -11.933   5.157   0.405  0.00  0.00     0.125 HD
ENDBRANCH  18  21
ENDBRANCH   6  12
ENDBRANCH   2   3
ENDBRANCH   1   2
BRANCH   1  24
ATOM     24  P   UNL d   1      -2.909   3.680  -2.017  0.00  0.00     0.401 P 
ATOM     25  O   UNL d   1      -3.454   4.633  -3.108  0.00  0.00    -0.631 OA
BRANCH  24  26
ATOM     26  O   UNL d   1      -1.821   2.971  -3.028  0.00  0.00    -0.307 OA
ATOM     27  H   UNL d   1      -1.016   3.509  -3.123  0.00  0.00     0.222 HD
ENDBRANCH  24  26
BRANCH  24  28
ATOM     28  O   UNL d   1      -2.298   2.615  -0.797  0.00  0.00    -0.195 OA
BRANCH  28  29
ATOM     29  P   UNL d   1      -0.745   2.810  -0.491  0.00  0.00     0.401 P 
ATOM     30  O   UNL d   1      -0.288   4.216  -0.649  0.00  0.00    -0.631 OA
BRANCH  29  31
ATOM     31  O   UNL d   1      -0.054   1.789  -1.515  0.00  0.00    -0.307 OA
ATOM     32  H   UNL d   1       0.919   1.881  -1.452  0.00  0.00     0.222 HD
ENDBRANCH  29  31
BRANCH  29  33
ATOM     33  O   UNL d   1      -0.540   2.087   0.925  0.00  0.00    -0.294 OA
BRANCH  33  34
ATOM     34  C   UNL d   1      -1.040   2.687   2.109  0.00  0.00     0.215 C 
BRANCH  34  35
ATOM     35  C   UNL d   1      -2.566   2.868   2.073  0.00  0.00     0.180 C 
ATOM     36  O   UNL d   1      -3.030   3.500   3.297  0.00  0.00    -0.349 OA
ATOM     37  C   UNL d   1      -3.145   4.919   3.044  0.00  0.00     0.288 C 
ATOM     38  C   UNL d   1      -2.780   5.171   1.576  0.00  0.00     0.204 C 
ATOM     39  C   UNL d   1      -3.024   3.806   0.960  0.00  0.00     0.182 C 
BRANCH  37  40
ATOM     40  O   UNL d   1      -2.255   5.627   3.878  0.00  0.00    -0.369 OA
ATOM     41  H   UNL d   1      -2.732   5.845   4.695  0.00  0.00     0.212 HD
ENDBRANCH  37  40
BRANCH  38  42
ATOM     42  O   UNL d   1      -3.577   6.187   0.975  0.00  0.00    -0.388 OA
ATOM     43  H   UNL d   1      -4.363   5.736   0.607  0.00  0.00     0.210 HD
ENDBRANCH  38  42
BRANCH  39  44
ATOM     44  O   UNL d   1      -4.435   3.672   0.703  0.00  0.00    -0.390 OA
ATOM     45  H   UNL d   1      -4.864   3.288   1.490  0.00  0.00     0.210 HD
ENDBRANCH  39  44
ENDBRANCH  34  35
ENDBRANCH  33  34
ENDBRANCH  29  33
ENDBRANCH  28  29
ENDBRANCH  24  28
ENDBRANCH   1  24
TORSDOF 17
