@<TRIPOS>MOLECULE
APR
 59 62 0 0 0
SMALL
GASTEIGER

@<TRIPOS>ATOM
      1 N         -11.7428    3.2503   -1.0328 N.ar    1  UNL1       -0.2188
      2 C         -11.4159    2.1517   -1.7462 C.ar    1  UNL1        0.1205
      3 N         -10.1949    1.6193   -1.9490 N.ar    1  UNL1       -0.2159
      4 C          -9.2437    2.3501   -1.3452 C.ar    1  UNL1        0.1674
      5 C          -9.4240    3.4988   -0.5935 C.ar    1  UNL1        0.1473
      6 C         -10.7459    3.9554   -0.4496 C.ar    1  UNL1        0.1472
      7 N         -11.0942    5.0802    0.2916 N.pl3   1  UNL1       -0.3413
      8 N          -8.2152    3.9659   -0.1174 N.ar    1  UNL1       -0.2306
      9 C          -7.3216    3.1126   -0.5795 C.ar    1  UNL1        0.1004
     10 N          -7.8978    2.1210   -1.3267 N.ar    1  UNL1       -0.2855
     11 C          -7.2433    1.0011   -1.9668 C.3     1  UNL1        0.1667
     12 C          -6.7214    1.2940   -3.3732 C.3     1  UNL1        0.1285
     13 O          -7.6766    1.0578   -4.4084 O.3     1  UNL1       -0.3847
     14 C          -5.5718    0.3052   -3.4740 C.3     1  UNL1        0.1135
     15 O          -6.1146   -0.9731   -3.8710 O.3     1  UNL1       -0.3864
     16 O          -6.1135    0.5805   -1.1683 O.3     1  UNL1       -0.3456
     17 C          -5.0217    0.2515   -2.0540 C.3     1  UNL1        0.1134
     18 C          -3.8413    1.1895   -1.8202 C.3     1  UNL1        0.0879
     19 O          -4.1211    2.5365   -2.2000 O.3     1  UNL1       -0.2837
     20 P          -2.9419    3.6978   -1.9300 P.3     1  UNL1        0.4835
     21 O          -1.8197    2.6802   -1.6100 O.2     1  UNL1       -0.2269
     22 O          -3.2971    3.9679   -0.3460 O.3     1  UNL1       -0.3022
     23 O          -4.1958    4.8349   -2.2874 O.3     1  UNL1       -0.1861
     24 P          -3.9240    5.7026   -3.5976 P.3     1  UNL1        0.4835
     25 O          -2.8794    5.1197   -4.4804 O.2     1  UNL1       -0.2269
     26 O          -3.5337    7.1356   -2.9956 O.3     1  UNL1       -0.3022
     27 O          -5.3879    5.9571   -4.2006 O.3     1  UNL1       -0.2837
     28 C          -5.5402    6.3560   -5.5535 C.3     1  UNL1        0.0879
     29 O          -3.5935    7.8516   -5.6178 O.3     1  UNL1       -0.3407
     30 O          -2.1856    6.5478   -6.9526 O.3     1  UNL1       -0.3649
     31 C          -2.9762    7.7151   -6.9186 C.3     1  UNL1        0.1854
     32 O          -3.7758    8.2786   -9.1813 O.3     1  UNL1       -0.3841
     33 C          -4.0924    7.6077   -7.9646 C.3     1  UNL1        0.1339
     34 O          -5.1313    9.6807   -7.3562 O.3     1  UNL1       -0.3864
     35 C          -5.2586    8.2511   -7.2385 C.3     1  UNL1        0.1141
     36 C          -5.0341    7.7857   -5.8017 C.3     1  UNL1        0.1139
     37 H         -12.2443    1.6280   -2.2146 H       1  UNL1        0.1048
     38 H         -10.3948    5.3241    0.9842 H       1  UNL1        0.1438
     39 H         -12.0583    5.0378    0.5954 H       1  UNL1        0.1438
     40 H          -6.2514    3.1649   -0.4030 H       1  UNL1        0.1030
     41 H          -7.9543    0.1657   -1.9732 H       1  UNL1        0.0866
     42 H          -6.3666    2.3258   -3.4606 H       1  UNL1        0.0665
     43 H          -7.5648    0.1208   -4.6755 H       1  UNL1        0.2101
     44 H          -4.8337    0.5815   -4.2323 H       1  UNL1        0.0647
     45 H          -6.3489   -1.4826   -3.0727 H       1  UNL1        0.2100
     46 H          -4.7037   -0.7650   -1.7939 H       1  UNL1        0.0647
     47 H          -3.5693    1.1654   -0.7593 H       1  UNL1        0.0592
     48 H          -3.0054    0.8246   -2.4286 H       1  UNL1        0.0592
     49 H          -2.6789    4.6024    0.0571 H       1  UNL1        0.2220
     50 H          -3.2792    7.7331   -3.7296 H       1  UNL1        0.2220
     51 H          -5.0495    5.6171   -6.1932 H       1  UNL1        0.0592
     52 H          -6.6143    6.3209   -5.7663 H       1  UNL1        0.0592
     53 H          -1.2893    6.7951   -6.6744 H       1  UNL1        0.2126
     54 H          -2.3371    8.5876   -7.0928 H       1  UNL1        0.0935
     55 H          -4.0888    9.1989   -9.0751 H       1  UNL1        0.2101
     56 H          -4.2993    6.5583   -8.2038 H       1  UNL1        0.0671
     57 H          -4.6037   10.0141   -6.6067 H       1  UNL1        0.2100
     58 H          -6.2311    7.9748   -7.6543 H       1  UNL1        0.0648
     59 H          -5.4743    8.4722   -5.0702 H       1  UNL1        0.0647
@<TRIPOS>BOND
     1     1     2   ar
     2     1     6   ar
     3     2     3   ar
     4     2    37    1
     5     3     4   ar
     6     4     5   ar
     7     4    10   ar
     8     5     6   ar
     9     5     8   ar
    10     6     7    1
    11     7    38    1
    12     7    39    1
    13     8     9   ar
    14     9    10   ar
    15     9    40    1
    16    10    11    1
    17    11    12    1
    18    11    16    1
    19    11    41    1
    20    12    13    1
    21    12    14    1
    22    12    42    1
    23    13    43    1
    24    14    15    1
    25    14    17    1
    26    14    44    1
    27    15    45    1
    28    16    17    1
    29    18    19    1
    30    18    47    1
    31    18    48    1
    32    20    22    1
    33    20    23    1
    34    22    49    1
    35    24    26    1
    36    24    27    1
    37    26    50    1
    38    27    28    1
    39    28    36    1
    40    28    51    1
    41    28    52    1
    42    29    31    1
    43    29    36    1
    44    30    53    1
    45    31    33    1
    46    32    33    1
    47    32    55    1
    48    33    35    1
    49    33    56    1
    50    34    35    1
    51    34    57    1
    52    35    36    1
    53    35    58    1
    54    36    59    1
    55    17    46    1
    56    17    18    1
    57    20    21    2
    58    20    19    1
    59    24    25    2
    60    24    23    1
    61    31    54    1
    62    31    30    1
