@<TRIPOS>MOLECULE
APR
 59 62 0 0 0
SMALL
GASTEIGER

@<TRIPOS>ATOM
      1 N         -11.6965    2.9873   -0.6818 N.pl3   1  UNL11      -0.2188
      2 C         -11.3538    1.7592   -1.1256 C.3     1  UNL11       0.1205
      3 N         -10.1424    1.3209   -1.5203 N.pl3   1  UNL11      -0.2159
      4 C          -9.2276    2.3013   -1.4481 C.3     1  UNL11       0.1674
      5 C          -9.4310    3.6042   -1.0259 C.3     1  UNL11       0.1473
      6 C         -10.7385    3.9418   -0.6346 C.3     1  UNL11       0.1472
      7 N         -11.0997    5.2012   -0.1663 N.pl3   1  UNL11      -0.3413
      8 N          -8.2529    4.3225   -1.0727 N.pl3   1  UNL11      -0.2306
      9 C          -7.3560    3.4649   -1.5200 C.3     1  UNL11       0.1004
     10 N          -7.9003    2.2323   -1.7607 N.pl3   1  UNL11      -0.2855
     11 C          -7.2241    1.0418   -2.2273 C.3     1  UNL11       0.1667
     12 C          -6.5836    1.1792   -3.6083 C.3     1  UNL11       0.1285
     13 O          -7.4579    0.8526   -4.6894 O.3     1  UNL11      -0.3847
     14 C          -5.4542    0.1669   -3.5126 C.3     1  UNL11       0.1135
     15 O          -5.9945   -1.1367   -3.8210 O.3     1  UNL11      -0.3864
     16 O          -6.1728    0.6879   -1.2996 O.3     1  UNL11      -0.3456
     17 C          -5.0217    0.2515   -2.0540 C.3     1  UNL11       0.1134
     18 C          -3.8413    1.1895   -1.8202 C.3     1  UNL11       0.0879
     19 O          -4.1211    2.5365   -2.2000 O.3     1  UNL11      -0.2837
     20 P          -2.9085    3.6803   -2.0168 P.3     1  UNL11       0.4835
     21 O          -3.4545    4.6332   -3.1082 O.2     1  UNL11      -0.2269
     22 O          -1.8208    2.9710   -3.0277 O.3     1  UNL11      -0.3022
     23 O          -2.2983    2.6154   -0.7974 O.3     1  UNL11      -0.1861
     24 P          -0.7454    2.8099   -0.4911 P.3     1  UNL11       0.4835
     25 O          -0.2884    4.2159   -0.6486 O.2     1  UNL11      -0.2269
     26 O          -0.0545    1.7886   -1.5148 O.3     1  UNL11      -0.3022
     27 O          -0.5396    2.0871    0.9254 O.3     1  UNL11      -0.2837
     28 C          -1.0400    2.6874    2.1094 C.3     1  UNL11       0.0879
     29 O          -3.0297    3.4999    3.2974 O.3     1  UNL11      -0.3407
     30 O          -2.2547    5.6273    3.8785 O.3     1  UNL11      -0.3649
     31 C          -3.1446    4.9193    3.0444 C.3     1  UNL11       0.1854
     32 O          -3.5768    6.1872    0.9750 O.3     1  UNL11      -0.3841
     33 C          -2.7795    5.1706    1.5764 C.3     1  UNL11       0.1339
     34 O          -4.4347    3.6723    0.7034 O.3     1  UNL11      -0.3864
     35 C          -3.0239    3.8064    0.9597 C.3     1  UNL11       0.1141
     36 C          -2.5658    2.8676    2.0733 C.3     1  UNL11       0.1139
     37 H         -12.1577    1.0298   -1.1672 H       1  UNL11       0.1048
     38 H         -10.3104    5.7250    0.1957 H       1  UNL11       0.1438
     39 H         -11.9334    5.1572    0.4051 H       1  UNL11       0.1438
     40 H          -6.3050    3.6825   -1.6856 H       1  UNL11       0.1030
     41 H          -7.9525    0.2218   -2.2073 H       1  UNL11       0.0866
     42 H          -6.1978    2.1906   -3.7706 H       1  UNL11       0.0665
     43 H          -7.3480   -0.1086   -4.8496 H       1  UNL11       0.2101
     44 H          -4.6510    0.3513   -4.2316 H       1  UNL11       0.0647
     45 H          -6.3047   -1.5570   -2.9970 H       1  UNL11       0.2100
     46 H          -4.7507   -0.7376   -1.6664 H       1  UNL11       0.0647
     47 H          -3.5693    1.1654   -0.7593 H       1  UNL11       0.0592
     48 H          -3.0054    0.8246   -2.4286 H       1  UNL11       0.0592
     49 H          -1.0155    3.5092   -3.1228 H       1  UNL11       0.2220
     50 H           0.9192    1.8814   -1.4521 H       1  UNL11       0.2220
     51 H          -0.7042    2.0996    2.9683 H       1  UNL11       0.0592
     52 H          -0.5704    3.6749    2.1767 H       1  UNL11       0.0592
     53 H          -2.7320    5.8452    4.6949 H       1  UNL11       0.2126
     54 H          -4.1711    5.2298    3.2679 H       1  UNL11       0.0935
     55 H          -4.3626    5.7361    0.6073 H       1  UNL11       0.2101
     56 H          -1.7290    5.4694    1.4843 H       1  UNL11       0.0671
     57 H          -4.8641    3.2883    1.4905 H       1  UNL11       0.2100
     58 H          -2.5045    3.6636    0.0086 H       1  UNL11       0.0648
     59 H          -3.0582    1.8904    2.0203 H       1  UNL11       0.0647
@<TRIPOS>BOND
     1     1     2   ar
     2     1     6   ar
     3     2     3   ar
     4     2    37    1
     5     3     4   ar
     6     4     5   ar
     7     4    10   ar
     8     5     6   ar
     9     5     8   ar
    10     6     7    1
    11     7    38    1
    12     7    39    1
    13     8     9   ar
    14     9    10   ar
    15     9    40    1
    16    10    11    1
    17    11    12    1
    18    11    16    1
    19    11    41    1
    20    12    13    1
    21    12    14    1
    22    12    42    1
    23    13    43    1
    24    14    15    1
    25    14    17    1
    26    14    44    1
    27    15    45    1
    28    16    17    1
    29    18    19    1
    30    18    47    1
    31    18    48    1
    32    20    22    1
    33    20    23    1
    34    22    49    1
    35    24    26    1
    36    24    27    1
    37    26    50    1
    38    27    28    1
    39    28    36    1
    40    28    51    1
    41    28    52    1
    42    29    31    1
    43    29    36    1
    44    30    53    1
    45    31    33    1
    46    32    33    1
    47    32    55    1
    48    33    35    1
    49    33    56    1
    50    34    35    1
    51    34    57    1
    52    35    36    1
    53    35    58    1
    54    36    59    1
    55    17    46    1
    56    17    18    1
    57    20    21    2
    58    20    19    1
    59    24    25    2
    60    24    23    1
    61    31    54    1
    62    31    30    1
