MODEL 1
REMARK VINA RESULT:      -8.8      0.000      0.000
REMARK  12 active torsions:
REMARK  status: ('A' for Active; 'I' for Inactive)
REMARK    1  A    between atoms: O_1  and  C_19 
REMARK    2  A    between atoms: OE1_4  and  CD_26 
REMARK    3  A    between atoms: CA_14  and  N_7 
REMARK       I    between atoms: N_7  and  C4_17 
REMARK    4  A    between atoms: N2_8  and  C7_20 
REMARK    5  A    between atoms: N2_8  and  C8_21 
REMARK    6  A    between atoms: N7_13  and  C19_32 
REMARK    7  A    between atoms: CA_14  and  CB_15 
REMARK    8  A    between atoms: CA_14  and  C_19 
REMARK    9  A    between atoms: CB_15  and  CG_16 
REMARK   10  A    between atoms: CG_16  and  CD_26 
REMARK   11  A    between atoms: C4_17  and  C5_18 
REMARK   12  A    between atoms: C8_21  and  C14_27 
ROOT
ATOM      1  C5  <1> d   1      19.567  20.123  11.089  0.00  0.00     0.032 C 
ATOM      2  C7  <1> d   1      20.924  19.737   8.604  0.00  0.00     0.028 C 
ATOM      3  C9  <1> d   1      18.901  19.564   9.992  0.00  0.00     0.019 C 
ATOM      4  C10 <1> d   1      20.875  20.597  10.884  0.00  0.00     0.019 C 
ATOM      5  C11 <1> d   1      19.590  19.337   8.785  0.00  0.00     0.030 C 
ATOM      6  C12 <1> d   1      21.530  20.436   9.647  0.00  0.00     0.030 C 
ENDROOT
BRANCH   2   7
ATOM      7  N2  <1> d   1      21.609  19.314   7.471  0.00  0.00    -0.384 N 
ATOM      8  H11 <1> d   1      21.090  18.693   6.844  0.00  0.00     0.160 HD
BRANCH   7   9
ATOM      9  C8  <1> d   1      22.506  20.190   6.720  0.00  0.00     0.180 C 
BRANCH   9  10
ATOM     10  C14 <1> d   1      21.707  21.064   5.762  0.00  0.00     0.070 A 
ATOM     11  N3  <1> d   1      20.760  20.476   4.977  0.00  0.00    -0.241 NA
ATOM     12  C15 <1> d   1      20.054  21.332   4.190  0.00  0.00     0.173 A 
ATOM     13  C17 <1> d   1      20.256  22.706   4.158  0.00  0.00     0.186 A 
ATOM     14  C18 <1> d   1      18.979  20.803   3.332  0.00  0.00     0.280 A 
ATOM     15  N4  <1> d   1      21.204  23.285   4.930  0.00  0.00    -0.237 NA
ATOM     16  N6  <1> d   1      19.503  23.585   3.366  0.00  0.00    -0.198 NA
ATOM     17  C16 <1> d   1      21.914  22.443   5.726  0.00  0.00     0.147 A 
ATOM     18  C19 <1> d   1      18.571  23.080   2.628  0.00  0.00     0.182 A 
ATOM     19  N5  <1> d   1      18.310  21.744   2.581  0.00  0.00    -0.296 N 
ATOM     20  H16 <1> d   1      17.541  21.393   2.027  0.00  0.00     0.171 HD
ATOM     21  O6  <1> d   1      18.680  19.615   3.282  0.00  0.00    -0.265 OA
BRANCH  18  22
ATOM     22  N7  <1> d   1      17.800  23.876   1.850  0.00  0.00    -0.272 NA
ATOM     23  H18 <1> d   1      16.896  24.155   2.206  0.00  0.00     0.127 HD
ATOM     24  H19 <1> d   1      17.772  23.565   0.882  0.00  0.00     0.127 HD
ENDBRANCH  18  22
ENDBRANCH   9  10
ENDBRANCH   7   9
ENDBRANCH   2   7
BRANCH   1  25
ATOM     25  C4  <1> d   1      19.010  20.084  12.498  0.00  0.00     0.252 C 
ATOM     26  O2  <1> d   1      17.982  20.686  12.763  0.00  0.00    -0.268 OA
ATOM     27  N   GLU d   1      19.731  19.364  13.442  0.00  0.00    -0.343 N 
ATOM     28  H   GLU d   1      20.616  18.969  13.147  0.00  0.00     0.163 HD
BRANCH  27  29
ATOM     29  CA  GLU d   1      19.436  19.174  14.892  0.00  0.00     0.183 C 
BRANCH  29  30
ATOM     30  CB  GLU d   1      18.512  17.972  15.177  0.00  0.00     0.046 C 
BRANCH  30  31
ATOM     31  CG  GLU d   1      17.110  18.275  15.738  0.00  0.00     0.112 C 
BRANCH  31  32
ATOM     32  CD  GLU d   1      17.159  18.330  17.247  0.00  0.00     0.139 C 
ATOM     33  OE2 GLU d   1      16.362  18.959  17.930  0.00  0.00    -0.650 OA
BRANCH  32  34
ATOM     34  OE1 GLU d   1      18.183  17.637  17.787  0.00  0.00    -0.776 OA
ATOM     35  HE1 GLU d   1      18.929  17.474  17.179  0.00  0.00     0.167 HD
ENDBRANCH  32  34
ENDBRANCH  31  32
ENDBRANCH  30  31
ENDBRANCH  29  30
BRANCH  29  36
ATOM     36  C   GLU d   1      20.787  18.970  15.618  0.00  0.00     0.163 C 
ATOM     37  OXT GLU d   1      21.803  19.624  15.484  0.00  0.00    -0.648 OA
BRANCH  36  38
ATOM     38  O   GLU d   1      20.779  17.948  16.505  0.00  0.00    -0.775 OA
ATOM     39  H   GLU d   1      20.542  17.181  15.939  0.00  0.00     0.167 HD
ENDBRANCH  36  38
ENDBRANCH  29  36
ENDBRANCH  27  29
ENDBRANCH   1  25
TORSDOF 12
ENDMDL
MODEL 2
REMARK VINA RESULT:      -8.7      2.434     11.116
REMARK  12 active torsions:
REMARK  status: ('A' for Active; 'I' for Inactive)
REMARK    1  A    between atoms: O_1  and  C_19 
REMARK    2  A    between atoms: OE1_4  and  CD_26 
REMARK    3  A    between atoms: CA_14  and  N_7 
REMARK       I    between atoms: N_7  and  C4_17 
REMARK    4  A    between atoms: N2_8  and  C7_20 
REMARK    5  A    between atoms: N2_8  and  C8_21 
REMARK    6  A    between atoms: N7_13  and  C19_32 
REMARK    7  A    between atoms: CA_14  and  CB_15 
REMARK    8  A    between atoms: CA_14  and  C_19 
REMARK    9  A    between atoms: CB_15  and  CG_16 
REMARK   10  A    between atoms: CG_16  and  CD_26 
REMARK   11  A    between atoms: C4_17  and  C5_18 
REMARK   12  A    between atoms: C8_21  and  C14_27 
ROOT
ATOM      1  C5  <1> d   1      20.245  22.225   5.979  0.00  0.00     0.032 C 
ATOM      2  C7  <1> d   1      20.667  21.376   8.674  0.00  0.00     0.028 C 
ATOM      3  C9  <1> d   1      19.505  22.785   7.026  0.00  0.00     0.019 C 
ATOM      4  C10 <1> d   1      21.102  21.153   6.286  0.00  0.00     0.019 C 
ATOM      5  C11 <1> d   1      19.752  22.392   8.356  0.00  0.00     0.030 C 
ATOM      6  C12 <1> d   1      21.284  20.714   7.613  0.00  0.00     0.030 C 
ENDROOT
BRANCH   2   7
ATOM      7  N2  <1> d   1      21.013  21.168  10.004  0.00  0.00    -0.384 N 
ATOM      8  H11 <1> d   1      20.497  21.728  10.690  0.00  0.00     0.160 HD
BRANCH   7   9
ATOM      9  C8  <1> d   1      21.330  19.845  10.538  0.00  0.00     0.180 C 
BRANCH   9  10
ATOM     10  C14 <1> d   1      20.462  19.545  11.751  0.00  0.00     0.070 A 
ATOM     11  N3  <1> d   1      21.067  19.140  12.904  0.00  0.00    -0.241 NA
ATOM     12  C15 <1> d   1      20.226  18.945  13.956  0.00  0.00     0.173 A 
ATOM     13  C17 <1> d   1      18.851  19.130  13.899  0.00  0.00     0.186 A 
ATOM     14  C18 <1> d   1      20.784  18.545  15.261  0.00  0.00     0.280 A 
ATOM     15  N4  <1> d   1      18.253  19.522  12.751  0.00  0.00    -0.237 NA
ATOM     16  N6  <1> d   1      17.996  18.957  14.997  0.00  0.00    -0.198 NA
ATOM     17  C16 <1> d   1      19.080  19.725  11.691  0.00  0.00     0.147 A 
ATOM     18  C19 <1> d   1      18.525  18.606  16.121  0.00  0.00     0.182 A 
ATOM     19  N5  <1> d   1      19.861  18.385  16.270  0.00  0.00    -0.296 N 
ATOM     20  H16 <1> d   1      20.243  18.156  17.178  0.00  0.00     0.171 HD
ATOM     21  O6  <1> d   1      21.982  18.371  15.456  0.00  0.00    -0.265 OA
BRANCH  18  22
ATOM     22  N7  <1> d   1      17.756  18.433  17.221  0.00  0.00    -0.272 NA
ATOM     23  H18 <1> d   1      17.349  19.254  17.648  0.00  0.00     0.127 HD
ATOM     24  H19 <1> d   1      18.176  17.797  17.894  0.00  0.00     0.127 HD
ENDBRANCH  18  22
ENDBRANCH   9  10
ENDBRANCH   7   9
ENDBRANCH   2   7
BRANCH   1  25
ATOM     25  C4  <1> d   1      20.287  22.825   4.587  0.00  0.00     0.252 C 
ATOM     26  O2  <1> d   1      21.200  23.572   4.274  0.00  0.00    -0.268 OA
ATOM     27  N   GLU d   1      19.245  22.501   3.729  0.00  0.00    -0.343 N 
ATOM     28  H   GLU d   1      18.490  21.942   4.106  0.00  0.00     0.163 HD
BRANCH  27  29
ATOM     29  CA  GLU d   1      19.018  22.959   2.327  0.00  0.00     0.183 C 
BRANCH  29  30
ATOM     30  CB  GLU d   1      17.973  22.113   1.568  0.00  0.00     0.046 C 
BRANCH  30  31
ATOM     31  CG  GLU d   1      17.266  20.993   2.353  0.00  0.00     0.112 C 
BRANCH  31  32
ATOM     32  CD  GLU d   1      17.924  19.664   2.062  0.00  0.00     0.139 C 
ATOM     33  OE2 GLU d   1      18.036  19.193   0.938  0.00  0.00    -0.650 OA
BRANCH  32  34
ATOM     34  OE1 GLU d   1      18.365  19.019   3.162  0.00  0.00    -0.776 OA
ATOM     35  HE1 GLU d   1      19.024  19.513   3.686  0.00  0.00     0.167 HD
ENDBRANCH  32  34
ENDBRANCH  31  32
ENDBRANCH  30  31
ENDBRANCH  29  30
BRANCH  29  36
ATOM     36  C   GLU d   1      18.543  24.431   2.390  0.00  0.00     0.163 C 
ATOM     37  OXT GLU d   1      17.397  24.836   2.418  0.00  0.00    -0.648 OA
BRANCH  36  38
ATOM     38  O   GLU d   1      19.556  25.326   2.437  0.00  0.00    -0.775 OA
ATOM     39  H   GLU d   1      19.533  25.717   1.536  0.00  0.00     0.167 HD
ENDBRANCH  36  38
ENDBRANCH  29  36
ENDBRANCH  27  29
ENDBRANCH   1  25
TORSDOF 12
ENDMDL
MODEL 3
REMARK VINA RESULT:      -8.6      3.042     10.985
REMARK  12 active torsions:
REMARK  status: ('A' for Active; 'I' for Inactive)
REMARK    1  A    between atoms: O_1  and  C_19 
REMARK    2  A    between atoms: OE1_4  and  CD_26 
REMARK    3  A    between atoms: CA_14  and  N_7 
REMARK       I    between atoms: N_7  and  C4_17 
REMARK    4  A    between atoms: N2_8  and  C7_20 
REMARK    5  A    between atoms: N2_8  and  C8_21 
REMARK    6  A    between atoms: N7_13  and  C19_32 
REMARK    7  A    between atoms: CA_14  and  CB_15 
REMARK    8  A    between atoms: CA_14  and  C_19 
REMARK    9  A    between atoms: CB_15  and  CG_16 
REMARK   10  A    between atoms: CG_16  and  CD_26 
REMARK   11  A    between atoms: C4_17  and  C5_18 
REMARK   12  A    between atoms: C8_21  and  C14_27 
ROOT
ATOM      1  C5  <1> d   1      20.189  21.323   7.863  0.00  0.00     0.032 C 
ATOM      2  C7  <1> d   1      19.452  19.055   9.436  0.00  0.00     0.028 C 
ATOM      3  C9  <1> d   1      21.085  20.264   8.051  0.00  0.00     0.019 C 
ATOM      4  C10 <1> d   1      18.976  21.284   8.572  0.00  0.00     0.019 C 
ATOM      5  C11 <1> d   1      20.697  19.131   8.792  0.00  0.00     0.030 C 
ATOM      6  C12 <1> d   1      18.628  20.178   9.374  0.00  0.00     0.030 C 
ENDROOT
BRANCH   2   7
ATOM      7  N2  <1> d   1      19.046  17.843   9.982  0.00  0.00    -0.384 N 
ATOM      8  H11 <1> d   1      18.727  17.138   9.311  0.00  0.00     0.160 HD
BRANCH   7   9
ATOM      9  C8  <1> d   1      19.731  17.220  11.113  0.00  0.00     0.180 C 
BRANCH   9  10
ATOM     10  C14 <1> d   1      18.953  17.465  12.399  0.00  0.00     0.070 A 
ATOM     11  N3  <1> d   1      19.647  17.653  13.557  0.00  0.00    -0.241 NA
ATOM     12  C15 <1> d   1      18.881  17.920  14.649  0.00  0.00     0.173 A 
ATOM     13  C17 <1> d   1      17.494  17.999  14.628  0.00  0.00     0.186 A 
ATOM     14  C18 <1> d   1      19.536  18.179  15.945  0.00  0.00     0.280 A 
ATOM     15  N4  <1> d   1      16.808  17.801  13.479  0.00  0.00    -0.237 NA
ATOM     16  N6  <1> d   1      16.714  18.304  15.752  0.00  0.00    -0.198 NA
ATOM     17  C16 <1> d   1      17.560  17.538  12.377  0.00  0.00     0.147 A 
ATOM     18  C19 <1> d   1      17.327  18.524  16.867  0.00  0.00     0.182 A 
ATOM     19  N5  <1> d   1      18.682  18.454  16.990  0.00  0.00    -0.296 N 
ATOM     20  H16 <1> d   1      19.128  18.678  17.869  0.00  0.00     0.171 HD
ATOM     21  O6  <1> d   1      20.752  18.165  16.099  0.00  0.00    -0.265 OA
BRANCH  18  22
ATOM     22  N7  <1> d   1      16.633  18.836  17.986  0.00  0.00    -0.272 NA
ATOM     23  H18 <1> d   1      17.104  18.745  18.876  0.00  0.00     0.127 HD
ATOM     24  H19 <1> d   1      15.696  18.442  17.986  0.00  0.00     0.127 HD
ENDBRANCH  18  22
ENDBRANCH   9  10
ENDBRANCH   7   9
ENDBRANCH   2   7
BRANCH   1  25
ATOM     25  C4  <1> d   1      20.396  22.400   6.817  0.00  0.00     0.252 C 
ATOM     26  O2  <1> d   1      20.746  23.519   7.157  0.00  0.00    -0.268 OA
ATOM     27  N   GLU d   1      20.148  22.053   5.495  0.00  0.00    -0.343 N 
ATOM     28  H   GLU d   1      19.780  21.126   5.321  0.00  0.00     0.163 HD
BRANCH  27  29
ATOM     29  CA  GLU d   1      20.246  22.907   4.275  0.00  0.00     0.183 C 
BRANCH  29  30
ATOM     30  CB  GLU d   1      21.506  22.624   3.429  0.00  0.00     0.046 C 
BRANCH  30  31
ATOM     31  CG  GLU d   1      22.851  22.531   4.174  0.00  0.00     0.112 C 
BRANCH  31  32
ATOM     32  CD  GLU d   1      23.241  23.890   4.706  0.00  0.00     0.139 C 
ATOM     33  OE2 GLU d   1      23.272  24.904   4.021  0.00  0.00    -0.650 OA
BRANCH  32  34
ATOM     34  OE1 GLU d   1      23.581  23.891   6.012  0.00  0.00    -0.776 OA
ATOM     35  HE1 GLU d   1      23.623  23.005   6.420  0.00  0.00     0.167 HD
ENDBRANCH  32  34
ENDBRANCH  31  32
ENDBRANCH  30  31
ENDBRANCH  29  30
BRANCH  29  36
ATOM     36  C   GLU d   1      18.982  22.643   3.422  0.00  0.00     0.163 C 
ATOM     37  OXT GLU d   1      18.142  23.452   3.078  0.00  0.00    -0.648 OA
BRANCH  36  38
ATOM     38  O   GLU d   1      18.852  21.356   3.026  0.00  0.00    -0.775 OA
ATOM     39  H   GLU d   1      18.067  21.058   3.534  0.00  0.00     0.167 HD
ENDBRANCH  36  38
ENDBRANCH  29  36
ENDBRANCH  27  29
ENDBRANCH   1  25
TORSDOF 12
ENDMDL
MODEL 4
REMARK VINA RESULT:      -8.5      3.016     10.697
REMARK  12 active torsions:
REMARK  status: ('A' for Active; 'I' for Inactive)
REMARK    1  A    between atoms: O_1  and  C_19 
REMARK    2  A    between atoms: OE1_4  and  CD_26 
REMARK    3  A    between atoms: CA_14  and  N_7 
REMARK       I    between atoms: N_7  and  C4_17 
REMARK    4  A    between atoms: N2_8  and  C7_20 
REMARK    5  A    between atoms: N2_8  and  C8_21 
REMARK    6  A    between atoms: N7_13  and  C19_32 
REMARK    7  A    between atoms: CA_14  and  CB_15 
REMARK    8  A    between atoms: CA_14  and  C_19 
REMARK    9  A    between atoms: CB_15  and  CG_16 
REMARK   10  A    between atoms: CG_16  and  CD_26 
REMARK   11  A    between atoms: C4_17  and  C5_18 
REMARK   12  A    between atoms: C8_21  and  C14_27 
ROOT
ATOM      1  C5  <1> d   1      20.462  21.126   8.155  0.00  0.00     0.032 C 
ATOM      2  C7  <1> d   1      19.498  18.853   9.592  0.00  0.00     0.028 C 
ATOM      3  C9  <1> d   1      21.308  20.045   8.428  0.00  0.00     0.019 C 
ATOM      4  C10 <1> d   1      19.173  21.105   8.717  0.00  0.00     0.019 C 
ATOM      5  C11 <1> d   1      20.811  18.911   9.099  0.00  0.00     0.030 C 
ATOM      6  C12 <1> d   1      18.711  19.996   9.454  0.00  0.00     0.030 C 
ENDROOT
BRANCH   2   7
ATOM      7  N2  <1> d   1      19.005  17.643  10.067  0.00  0.00    -0.384 N 
ATOM      8  H11 <1> d   1      18.687  16.982   9.352  0.00  0.00     0.160 HD
BRANCH   7   9
ATOM      9  C8  <1> d   1      19.601  16.942  11.203  0.00  0.00     0.180 C 
BRANCH   9  10
ATOM     10  C14 <1> d   1      18.846  17.276  12.481  0.00  0.00     0.070 A 
ATOM     11  N3  <1> d   1      19.552  17.426  13.638  0.00  0.00    -0.241 NA
ATOM     12  C15 <1> d   1      18.810  17.777  14.723  0.00  0.00     0.173 A 
ATOM     13  C17 <1> d   1      17.436  17.974  14.696  0.00  0.00     0.186 A 
ATOM     14  C18 <1> d   1      19.484  18.003  16.015  0.00  0.00     0.280 A 
ATOM     15  N4  <1> d   1      16.736  17.815  13.549  0.00  0.00    -0.237 NA
ATOM     16  N6  <1> d   1      16.683  18.366  15.812  0.00  0.00    -0.198 NA
ATOM     17  C16 <1> d   1      17.464  17.468  12.455  0.00  0.00     0.147 A 
ATOM     18  C19 <1> d   1      17.312  18.553  16.925  0.00  0.00     0.182 A 
ATOM     19  N5  <1> d   1      18.656  18.369  17.052  0.00  0.00    -0.296 N 
ATOM     20  H16 <1> d   1      19.118  18.570  17.929  0.00  0.00     0.171 HD
ATOM     21  O6  <1> d   1      20.694  17.888  16.173  0.00  0.00    -0.265 OA
BRANCH  18  22
ATOM     22  N7  <1> d   1      16.646  18.944  18.036  0.00  0.00    -0.272 NA
ATOM     23  H18 <1> d   1      16.079  19.779  17.980  0.00  0.00     0.127 HD
ATOM     24  H19 <1> d   1      17.225  18.907  18.871  0.00  0.00     0.127 HD
ENDBRANCH  18  22
ENDBRANCH   9  10
ENDBRANCH   7   9
ENDBRANCH   2   7
BRANCH   1  25
ATOM     25  C4  <1> d   1      20.812  22.214   7.158  0.00  0.00     0.252 C 
ATOM     26  O2  <1> d   1      20.319  23.325   7.272  0.00  0.00    -0.268 OA
ATOM     27  N   GLU d   1      21.681  21.873   6.131  0.00  0.00    -0.343 N 
ATOM     28  H   GLU d   1      21.971  20.904   6.071  0.00  0.00     0.163 HD
BRANCH  27  29
ATOM     29  CA  GLU d   1      22.176  22.724   5.009  0.00  0.00     0.183 C 
BRANCH  29  30
ATOM     30  CB  GLU d   1      21.044  23.413   4.218  0.00  0.00     0.046 C 
BRANCH  30  31
ATOM     31  CG  GLU d   1      20.493  22.673   2.985  0.00  0.00     0.112 C 
BRANCH  31  32
ATOM     32  CD  GLU d   1      19.348  21.774   3.392  0.00  0.00     0.139 C 
ATOM     33  OE2 GLU d   1      19.497  20.707   3.972  0.00  0.00    -0.650 OA
BRANCH  32  34
ATOM     34  OE1 GLU d   1      18.132  22.239   3.037  0.00  0.00    -0.776 OA
ATOM     35  HE1 GLU d   1      18.063  22.524   2.105  0.00  0.00     0.167 HD
ENDBRANCH  32  34
ENDBRANCH  31  32
ENDBRANCH  30  31
ENDBRANCH  29  30
BRANCH  29  36
ATOM     36  C   GLU d   1      23.108  23.798   5.619  0.00  0.00     0.163 C 
ATOM     37  OXT GLU d   1      23.110  24.991   5.386  0.00  0.00    -0.648 OA
BRANCH  36  38
ATOM     38  O   GLU d   1      23.988  23.305   6.520  0.00  0.00    -0.775 OA
ATOM     39  H   GLU d   1      24.822  23.761   6.271  0.00  0.00     0.167 HD
ENDBRANCH  36  38
ENDBRANCH  29  36
ENDBRANCH  27  29
ENDBRANCH   1  25
TORSDOF 12
ENDMDL
MODEL 5
REMARK VINA RESULT:      -8.4      1.324      1.540
REMARK  12 active torsions:
REMARK  status: ('A' for Active; 'I' for Inactive)
REMARK    1  A    between atoms: O_1  and  C_19 
REMARK    2  A    between atoms: OE1_4  and  CD_26 
REMARK    3  A    between atoms: CA_14  and  N_7 
REMARK       I    between atoms: N_7  and  C4_17 
REMARK    4  A    between atoms: N2_8  and  C7_20 
REMARK    5  A    between atoms: N2_8  and  C8_21 
REMARK    6  A    between atoms: N7_13  and  C19_32 
REMARK    7  A    between atoms: CA_14  and  CB_15 
REMARK    8  A    between atoms: CA_14  and  C_19 
REMARK    9  A    between atoms: CB_15  and  CG_16 
REMARK   10  A    between atoms: CG_16  and  CD_26 
REMARK   11  A    between atoms: C4_17  and  C5_18 
REMARK   12  A    between atoms: C8_21  and  C14_27 
ROOT
ATOM      1  C5  <1> d   1      19.239  20.428  10.824  0.00  0.00     0.032 C 
ATOM      2  C7  <1> d   1      20.501  21.064   8.341  0.00  0.00     0.028 C 
ATOM      3  C9  <1> d   1      20.123  19.525  10.222  0.00  0.00     0.019 C 
ATOM      4  C10 <1> d   1      18.904  21.589  10.106  0.00  0.00     0.019 C 
ATOM      5  C11 <1> d   1      20.774  19.866   9.021  0.00  0.00     0.030 C 
ATOM      6  C12 <1> d   1      19.503  21.884   8.865  0.00  0.00     0.030 C 
ENDROOT
BRANCH   2   7
ATOM      7  N2  <1> d   1      21.311  21.436   7.274  0.00  0.00    -0.384 N 
ATOM      8  H11 <1> d   1      22.288  21.633   7.506  0.00  0.00     0.160 HD
BRANCH   7   9
ATOM      9  C8  <1> d   1      21.196  20.827   5.949  0.00  0.00     0.180 C 
BRANCH   9  10
ATOM     10  C14 <1> d   1      20.916  21.896   4.902  0.00  0.00     0.070 A 
ATOM     11  N3  <1> d   1      19.753  21.827   4.193  0.00  0.00    -0.241 NA
ATOM     12  C15 <1> d   1      19.553  22.849   3.317  0.00  0.00     0.173 A 
ATOM     13  C17 <1> d   1      20.443  23.898   3.128  0.00  0.00     0.186 A 
ATOM     14  C18 <1> d   1      18.308  22.890   2.529  0.00  0.00     0.280 A 
ATOM     15  N4  <1> d   1      21.600  23.958   3.826  0.00  0.00    -0.237 NA
ATOM     16  N6  <1> d   1      20.214  24.963   2.245  0.00  0.00    -0.198 NA
ATOM     17  C16 <1> d   1      21.813  22.947   4.709  0.00  0.00     0.147 A 
ATOM     18  C19 <1> d   1      19.111  24.961   1.574  0.00  0.00     0.182 A 
ATOM     19  N5  <1> d   1      18.185  23.967   1.680  0.00  0.00    -0.296 N 
ATOM     20  H16 <1> d   1      17.313  24.025   1.172  0.00  0.00     0.171 HD
ATOM     21  O6  <1> d   1      17.427  22.041   2.616  0.00  0.00    -0.265 OA
BRANCH  18  22
ATOM     22  N7  <1> d   1      18.825  25.966   0.714  0.00  0.00    -0.272 NA
ATOM     23  H18 <1> d   1      18.245  25.754  -0.087  0.00  0.00     0.127 HD
ATOM     24  H19 <1> d   1      19.642  26.524   0.481  0.00  0.00     0.127 HD
ENDBRANCH  18  22
ENDBRANCH   9  10
ENDBRANCH   7   9
ENDBRANCH   2   7
BRANCH   1  25
ATOM     25  C4  <1> d   1      18.772  20.289  12.259  0.00  0.00     0.252 C 
ATOM     26  O2  <1> d   1      17.715  20.793  12.606  0.00  0.00    -0.268 OA
ATOM     27  N   GLU d   1      19.603  19.598  13.130  0.00  0.00    -0.343 N 
ATOM     28  H   GLU d   1      20.498  19.289  12.770  0.00  0.00     0.163 HD
BRANCH  27  29
ATOM     29  CA  GLU d   1      19.410  19.330  14.585  0.00  0.00     0.183 C 
BRANCH  29  30
ATOM     30  CB  GLU d   1      18.576  18.063  14.870  0.00  0.00     0.046 C 
BRANCH  30  31
ATOM     31  CG  GLU d   1      17.202  18.258  15.538  0.00  0.00     0.112 C 
BRANCH  31  32
ATOM     32  CD  GLU d   1      17.365  18.337  17.039  0.00  0.00     0.139 C 
ATOM     33  OE2 GLU d   1      16.603  18.951  17.773  0.00  0.00    -0.650 OA
BRANCH  32  34
ATOM     34  OE1 GLU d   1      18.450  17.686  17.507  0.00  0.00    -0.776 OA
ATOM     35  HE1 GLU d   1      19.206  18.263  17.729  0.00  0.00     0.167 HD
ENDBRANCH  32  34
ENDBRANCH  31  32
ENDBRANCH  30  31
ENDBRANCH  29  30
BRANCH  29  36
ATOM     36  C   GLU d   1      20.814  19.176  15.219  0.00  0.00     0.163 C 
ATOM     37  OXT GLU d   1      21.825  19.787  14.930  0.00  0.00    -0.648 OA
BRANCH  36  38
ATOM     38  O   GLU d   1      20.864  18.260  16.213  0.00  0.00    -0.775 OA
ATOM     39  H   GLU d   1      20.464  17.469  15.790  0.00  0.00     0.167 HD
ENDBRANCH  36  38
ENDBRANCH  29  36
ENDBRANCH  27  29
ENDBRANCH   1  25
TORSDOF 12
ENDMDL
MODEL 6
REMARK VINA RESULT:      -8.3      2.509     10.969
REMARK  12 active torsions:
REMARK  status: ('A' for Active; 'I' for Inactive)
REMARK    1  A    between atoms: O_1  and  C_19 
REMARK    2  A    between atoms: OE1_4  and  CD_26 
REMARK    3  A    between atoms: CA_14  and  N_7 
REMARK       I    between atoms: N_7  and  C4_17 
REMARK    4  A    between atoms: N2_8  and  C7_20 
REMARK    5  A    between atoms: N2_8  and  C8_21 
REMARK    6  A    between atoms: N7_13  and  C19_32 
REMARK    7  A    between atoms: CA_14  and  CB_15 
REMARK    8  A    between atoms: CA_14  and  C_19 
REMARK    9  A    between atoms: CB_15  and  CG_16 
REMARK   10  A    between atoms: CG_16  and  CD_26 
REMARK   11  A    between atoms: C4_17  and  C5_18 
REMARK   12  A    between atoms: C8_21  and  C14_27 
ROOT
ATOM      1  C5  <1> d   1      20.590  22.380   5.836  0.00  0.00     0.032 C 
ATOM      2  C7  <1> d   1      20.234  21.025   8.325  0.00  0.00     0.028 C 
ATOM      3  C9  <1> d   1      21.222  21.155   6.076  0.00  0.00     0.019 C 
ATOM      4  C10 <1> d   1      19.885  22.971   6.899  0.00  0.00     0.019 C 
ATOM      5  C11 <1> d   1      21.005  20.473   7.289  0.00  0.00     0.030 C 
ATOM      6  C12 <1> d   1      19.739  22.315   8.138  0.00  0.00     0.030 C 
ENDROOT
BRANCH   2   7
ATOM      7  N2  <1> d   1      19.893  20.229   9.413  0.00  0.00    -0.384 N 
ATOM      8  H11 <1> d   1      19.008  19.720   9.331  0.00  0.00     0.160 HD
BRANCH   7   9
ATOM      9  C8  <1> d   1      20.880  19.451  10.159  0.00  0.00     0.180 C 
BRANCH   9  10
ATOM     10  C14 <1> d   1      20.460  19.329  11.617  0.00  0.00     0.070 A 
ATOM     11  N3  <1> d   1      19.198  18.900  11.900  0.00  0.00    -0.241 NA
ATOM     12  C15 <1> d   1      18.920  18.766  13.226  0.00  0.00     0.173 A 
ATOM     13  C17 <1> d   1      19.824  19.041  14.243  0.00  0.00     0.186 A 
ATOM     14  C18 <1> d   1      17.594  18.270  13.639  0.00  0.00     0.280 A 
ATOM     15  N4  <1> d   1      21.073  19.477  13.959  0.00  0.00    -0.237 NA
ATOM     16  N6  <1> d   1      19.540  18.871  15.605  0.00  0.00    -0.198 NA
ATOM     17  C16 <1> d   1      21.368  19.611  12.638  0.00  0.00     0.147 A 
ATOM     18  C19 <1> d   1      18.367  18.434  15.924  0.00  0.00     0.182 A 
ATOM     19  N5  <1> d   1      17.408  18.154  14.998  0.00  0.00    -0.296 N 
ATOM     20  H16 <1> d   1      16.518  17.770  15.284  0.00  0.00     0.171 HD
ATOM     21  O6  <1> d   1      16.711  17.967  12.844  0.00  0.00    -0.265 OA
BRANCH  18  22
ATOM     22  N7  <1> d   1      18.033  18.238  17.220  0.00  0.00    -0.272 NA
ATOM     23  H18 <1> d   1      17.584  18.997  17.715  0.00  0.00     0.127 HD
ATOM     24  H19 <1> d   1      18.779  17.797  17.753  0.00  0.00     0.127 HD
ENDBRANCH  18  22
ENDBRANCH   9  10
ENDBRANCH   7   9
ENDBRANCH   2   7
BRANCH   1  25
ATOM     25  C4  <1> d   1      20.494  23.000   4.455  0.00  0.00     0.252 C 
ATOM     26  O2  <1> d   1      21.319  23.827   4.101  0.00  0.00    -0.268 OA
ATOM     27  N   GLU d   1      19.432  22.599   3.655  0.00  0.00    -0.343 N 
ATOM     28  H   GLU d   1      18.753  21.972   4.068  0.00  0.00     0.163 HD
BRANCH  27  29
ATOM     29  CA  GLU d   1      19.081  23.054   2.278  0.00  0.00     0.183 C 
BRANCH  29  30
ATOM     30  CB  GLU d   1      18.048  22.145   1.578  0.00  0.00     0.046 C 
BRANCH  30  31
ATOM     31  CG  GLU d   1      17.379  21.050   2.429  0.00  0.00     0.112 C 
BRANCH  31  32
ATOM     32  CD  GLU d   1      17.949  19.697   2.071  0.00  0.00     0.139 C 
ATOM     33  OE2 GLU d   1      18.005  19.265   0.927  0.00  0.00    -0.650 OA
BRANCH  32  34
ATOM     34  OE1 GLU d   1      18.377  18.984   3.134  0.00  0.00    -0.776 OA
ATOM     35  HE1 GLU d   1      18.679  19.523   3.889  0.00  0.00     0.167 HD
ENDBRANCH  32  34
ENDBRANCH  31  32
ENDBRANCH  30  31
ENDBRANCH  29  30
BRANCH  29  36
ATOM     36  C   GLU d   1      18.512  24.488   2.394  0.00  0.00     0.163 C 
ATOM     37  OXT GLU d   1      17.347  24.812   2.521  0.00  0.00    -0.648 OA
BRANCH  36  38
ATOM     38  O   GLU d   1      19.460  25.453   2.364  0.00  0.00    -0.775 OA
ATOM     39  H   GLU d   1      19.553  25.626   1.402  0.00  0.00     0.167 HD
ENDBRANCH  36  38
ENDBRANCH  29  36
ENDBRANCH  27  29
ENDBRANCH   1  25
TORSDOF 12
ENDMDL
MODEL 7
REMARK VINA RESULT:      -8.3      2.861     10.356
REMARK  12 active torsions:
REMARK  status: ('A' for Active; 'I' for Inactive)
REMARK    1  A    between atoms: O_1  and  C_19 
REMARK    2  A    between atoms: OE1_4  and  CD_26 
REMARK    3  A    between atoms: CA_14  and  N_7 
REMARK       I    between atoms: N_7  and  C4_17 
REMARK    4  A    between atoms: N2_8  and  C7_20 
REMARK    5  A    between atoms: N2_8  and  C8_21 
REMARK    6  A    between atoms: N7_13  and  C19_32 
REMARK    7  A    between atoms: CA_14  and  CB_15 
REMARK    8  A    between atoms: CA_14  and  C_19 
REMARK    9  A    between atoms: CB_15  and  CG_16 
REMARK   10  A    between atoms: CG_16  and  CD_26 
REMARK   11  A    between atoms: C4_17  and  C5_18 
REMARK   12  A    between atoms: C8_21  and  C14_27 
ROOT
ATOM      1  C5  <1> d   1      20.958  22.635   5.448  0.00  0.00     0.032 C 
ATOM      2  C7  <1> d   1      21.867  21.999   8.081  0.00  0.00     0.028 C 
ATOM      3  C9  <1> d   1      20.131  22.846   6.558  0.00  0.00     0.019 C 
ATOM      4  C10 <1> d   1      22.188  21.990   5.665  0.00  0.00     0.019 C 
ATOM      5  C11 <1> d   1      20.605  22.571   7.856  0.00  0.00     0.030 C 
ATOM      6  C12 <1> d   1      22.620  21.647   6.961  0.00  0.00     0.030 C 
ENDROOT
BRANCH   2   7
ATOM      7  N2  <1> d   1      22.358  21.933   9.380  0.00  0.00    -0.384 N 
ATOM      8  H11 <1> d   1      21.867  22.509  10.070  0.00  0.00     0.160 HD
BRANCH   7   9
ATOM      9  C8  <1> d   1      22.838  20.689   9.978  0.00  0.00     0.180 C 
BRANCH   9  10
ATOM     10  C14 <1> d   1      21.665  19.873  10.505  0.00  0.00     0.070 A 
ATOM     11  N3  <1> d   1      20.752  20.486  11.311  0.00  0.00    -0.241 NA
ATOM     12  C15 <1> d   1      19.707  19.704  11.694  0.00  0.00     0.173 A 
ATOM     13  C17 <1> d   1      19.549  18.377  11.318  0.00  0.00     0.186 A 
ATOM     14  C18 <1> d   1      18.643  20.283  12.534  0.00  0.00     0.280 A 
ATOM     15  N4  <1> d   1      20.462  17.768  10.527  0.00  0.00    -0.237 NA
ATOM     16  N6  <1> d   1      18.453  17.587  11.693  0.00  0.00    -0.198 NA
ATOM     17  C16 <1> d   1      21.510  18.538  10.132  0.00  0.00     0.147 A 
ATOM     18  C19 <1> d   1      17.543  18.132  12.430  0.00  0.00     0.182 A 
ATOM     19  N5  <1> d   1      17.619  19.422  12.861  0.00  0.00    -0.296 N 
ATOM     20  H16 <1> d   1      16.864  19.827  13.398  0.00  0.00     0.171 HD
ATOM     21  O6  <1> d   1      18.645  21.448  12.917  0.00  0.00    -0.265 OA
BRANCH  18  22
ATOM     22  N7  <1> d   1      16.454  17.428  12.816  0.00  0.00    -0.272 NA
ATOM     23  H18 <1> d   1      16.318  17.270  13.805  0.00  0.00     0.127 HD
ATOM     24  H19 <1> d   1      16.310  16.593  12.253  0.00  0.00     0.127 HD
ENDBRANCH  18  22
ENDBRANCH   9  10
ENDBRANCH   7   9
ENDBRANCH   2   7
BRANCH   1  25
ATOM     25  C4  <1> d   1      20.661  23.216   4.080  0.00  0.00     0.252 C 
ATOM     26  O2  <1> d   1      21.394  24.071   3.609  0.00  0.00    -0.268 OA
ATOM     27  N   GLU d   1      19.529  22.747   3.427  0.00  0.00    -0.343 N 
ATOM     28  H   GLU d   1      18.937  22.099   3.932  0.00  0.00     0.163 HD
BRANCH  27  29
ATOM     29  CA  GLU d   1      18.988  23.151   2.096  0.00  0.00     0.183 C 
BRANCH  29  30
ATOM     30  CB  GLU d   1      17.930  22.173   1.543  0.00  0.00     0.046 C 
BRANCH  30  31
ATOM     31  CG  GLU d   1      17.411  21.079   2.496  0.00  0.00     0.112 C 
BRANCH  31  32
ATOM     32  CD  GLU d   1      17.957  19.733   2.081  0.00  0.00     0.139 C 
ATOM     33  OE2 GLU d   1      17.983  19.338   0.923  0.00  0.00    -0.650 OA
BRANCH  32  34
ATOM     34  OE1 GLU d   1      18.399  18.980   3.110  0.00  0.00    -0.776 OA
ATOM     35  HE1 GLU d   1      18.825  18.142   2.847  0.00  0.00     0.167 HD
ENDBRANCH  32  34
ENDBRANCH  31  32
ENDBRANCH  30  31
ENDBRANCH  29  30
BRANCH  29  36
ATOM     36  C   GLU d   1      18.359  24.555   2.258  0.00  0.00     0.163 C 
ATOM     37  OXT GLU d   1      17.217  24.820   2.581  0.00  0.00    -0.648 OA
BRANCH  36  38
ATOM     38  O   GLU d   1      19.224  25.568   2.020  0.00  0.00    -0.775 OA
ATOM     39  H   GLU d   1      19.741  25.603   2.854  0.00  0.00     0.167 HD
ENDBRANCH  36  38
ENDBRANCH  29  36
ENDBRANCH  27  29
ENDBRANCH   1  25
TORSDOF 12
ENDMDL
MODEL 8
REMARK VINA RESULT:      -8.3      2.074      3.061
REMARK  12 active torsions:
REMARK  status: ('A' for Active; 'I' for Inactive)
REMARK    1  A    between atoms: O_1  and  C_19 
REMARK    2  A    between atoms: OE1_4  and  CD_26 
REMARK    3  A    between atoms: CA_14  and  N_7 
REMARK       I    between atoms: N_7  and  C4_17 
REMARK    4  A    between atoms: N2_8  and  C7_20 
REMARK    5  A    between atoms: N2_8  and  C8_21 
REMARK    6  A    between atoms: N7_13  and  C19_32 
REMARK    7  A    between atoms: CA_14  and  CB_15 
REMARK    8  A    between atoms: CA_14  and  C_19 
REMARK    9  A    between atoms: CB_15  and  CG_16 
REMARK   10  A    between atoms: CG_16  and  CD_26 
REMARK   11  A    between atoms: C4_17  and  C5_18 
REMARK   12  A    between atoms: C8_21  and  C14_27 
ROOT
ATOM      1  C5  <1> d   1      19.754  20.714   9.747  0.00  0.00     0.032 C 
ATOM      2  C7  <1> d   1      20.730  21.567   7.202  0.00  0.00     0.028 C 
ATOM      3  C9  <1> d   1      19.325  21.923   9.189  0.00  0.00     0.019 C 
ATOM      4  C10 <1> d   1      20.766  20.007   9.074  0.00  0.00     0.019 C 
ATOM      5  C11 <1> d   1      19.778  22.314   7.914  0.00  0.00     0.030 C 
ATOM      6  C12 <1> d   1      21.270  20.448   7.834  0.00  0.00     0.030 C 
ENDROOT
BRANCH   2   7
ATOM      7  N2  <1> d   1      20.991  21.892   5.875  0.00  0.00    -0.384 N 
ATOM      8  H11 <1> d   1      21.055  21.100   5.229  0.00  0.00     0.160 HD
BRANCH   7   9
ATOM      9  C8  <1> d   1      20.403  23.059   5.221  0.00  0.00     0.180 C 
BRANCH   9  10
ATOM     10  C14 <1> d   1      19.675  22.639   3.951  0.00  0.00     0.070 A 
ATOM     11  N3  <1> d   1      19.304  21.335   3.812  0.00  0.00    -0.241 NA
ATOM     12  C15 <1> d   1      18.610  21.053   2.676  0.00  0.00     0.173 A 
ATOM     13  C17 <1> d   1      18.289  21.994   1.706  0.00  0.00     0.186 A 
ATOM     14  C18 <1> d   1      18.127  19.679   2.447  0.00  0.00     0.280 A 
ATOM     15  N4  <1> d   1      18.668  23.285   1.842  0.00  0.00    -0.237 NA
ATOM     16  N6  <1> d   1      17.548  21.701   0.552  0.00  0.00    -0.198 NA
ATOM     17  C16 <1> d   1      19.358  23.584   2.975  0.00  0.00     0.147 A 
ATOM     18  C19 <1> d   1      17.144  20.485   0.391  0.00  0.00     0.182 A 
ATOM     19  N5  <1> d   1      17.424  19.491   1.279  0.00  0.00    -0.296 N 
ATOM     20  H16 <1> d   1      17.050  18.562   1.140  0.00  0.00     0.171 HD
ATOM     21  O6  <1> d   1      18.319  18.758   3.234  0.00  0.00    -0.265 OA
BRANCH  18  22
ATOM     22  N7  <1> d   1      16.414  20.139  -0.695  0.00  0.00    -0.272 NA
ATOM     23  H18 <1> d   1      15.939  19.247  -0.683  0.00  0.00     0.127 HD
ATOM     24  H19 <1> d   1      16.904  20.321  -1.568  0.00  0.00     0.127 HD
ENDBRANCH  18  22
ENDBRANCH   9  10
ENDBRANCH   7   9
ENDBRANCH   2   7
BRANCH   1  25
ATOM     25  C4  <1> d   1      19.067  20.065  10.933  0.00  0.00     0.252 C 
ATOM     26  O2  <1> d   1      17.996  20.498  11.327  0.00  0.00    -0.268 OA
ATOM     27  N   GLU d   1      19.720  18.998  11.535  0.00  0.00    -0.343 N 
ATOM     28  H   GLU d   1      20.643  18.766  11.190  0.00  0.00     0.163 HD
BRANCH  27  29
ATOM     29  CA  GLU d   1      19.295  18.194  12.718  0.00  0.00     0.183 C 
BRANCH  29  30
ATOM     30  CB  GLU d   1      18.875  19.058  13.926  0.00  0.00     0.046 C 
BRANCH  30  31
ATOM     31  CG  GLU d   1      19.060  18.449  15.329  0.00  0.00     0.112 C 
BRANCH  31  32
ATOM     32  CD  GLU d   1      17.732  18.393  16.047  0.00  0.00     0.139 C 
ATOM     33  OE2 GLU d   1      16.667  18.167  15.489  0.00  0.00    -0.650 OA
BRANCH  32  34
ATOM     34  OE1 GLU d   1      17.814  18.642  17.371  0.00  0.00    -0.776 OA
ATOM     35  HE1 GLU d   1      18.724  18.738  17.710  0.00  0.00     0.167 HD
ENDBRANCH  32  34
ENDBRANCH  31  32
ENDBRANCH  30  31
ENDBRANCH  29  30
BRANCH  29  36
ATOM     36  C   GLU d   1      18.103  17.312  12.275  0.00  0.00     0.163 C 
ATOM     37  OXT GLU d   1      18.148  16.190  11.810  0.00  0.00    -0.648 OA
BRANCH  36  38
ATOM     38  O   GLU d   1      16.896  17.895  12.464  0.00  0.00    -0.775 OA
ATOM     39  H   GLU d   1      16.320  17.125  12.665  0.00  0.00     0.167 HD
ENDBRANCH  36  38
ENDBRANCH  29  36
ENDBRANCH  27  29
ENDBRANCH   1  25
TORSDOF 12
ENDMDL
MODEL 9
REMARK VINA RESULT:      -8.1      1.341      1.859
REMARK  12 active torsions:
REMARK  status: ('A' for Active; 'I' for Inactive)
REMARK    1  A    between atoms: O_1  and  C_19 
REMARK    2  A    between atoms: OE1_4  and  CD_26 
REMARK    3  A    between atoms: CA_14  and  N_7 
REMARK       I    between atoms: N_7  and  C4_17 
REMARK    4  A    between atoms: N2_8  and  C7_20 
REMARK    5  A    between atoms: N2_8  and  C8_21 
REMARK    6  A    between atoms: N7_13  and  C19_32 
REMARK    7  A    between atoms: CA_14  and  CB_15 
REMARK    8  A    between atoms: CA_14  and  C_19 
REMARK    9  A    between atoms: CB_15  and  CG_16 
REMARK   10  A    between atoms: CG_16  and  CD_26 
REMARK   11  A    between atoms: C4_17  and  C5_18 
REMARK   12  A    between atoms: C8_21  and  C14_27 
ROOT
ATOM      1  C5  <1> d   1      21.464  19.823  11.232  0.00  0.00     0.032 C 
ATOM      2  C7  <1> d   1      21.969  19.385   8.454  0.00  0.00     0.028 C 
ATOM      3  C9  <1> d   1      22.076  20.813  10.454  0.00  0.00     0.019 C 
ATOM      4  C10 <1> d   1      21.226  18.575  10.630  0.00  0.00     0.019 C 
ATOM      5  C11 <1> d   1      22.280  20.605   9.076  0.00  0.00     0.030 C 
ATOM      6  C12 <1> d   1      21.507  18.351   9.267  0.00  0.00     0.030 C 
ENDROOT
BRANCH   2   7
ATOM      7  N2  <1> d   1      22.006  19.304   7.067  0.00  0.00    -0.384 N 
ATOM      8  H11 <1> d   1      21.114  19.093   6.610  0.00  0.00     0.160 HD
BRANCH   7   9
ATOM      9  C8  <1> d   1      22.816  20.204   6.247  0.00  0.00     0.180 C 
BRANCH   9  10
ATOM     10  C14 <1> d   1      21.919  21.086   5.391  0.00  0.00     0.070 A 
ATOM     11  N3  <1> d   1      20.888  20.507   4.712  0.00  0.00    -0.241 NA
ATOM     12  C15 <1> d   1      20.102  21.371   4.014  0.00  0.00     0.173 A 
ATOM     13  C17 <1> d   1      20.303  22.745   3.970  0.00  0.00     0.186 A 
ATOM     14  C18 <1> d   1      18.936  20.852   3.277  0.00  0.00     0.280 A 
ATOM     15  N4  <1> d   1      21.333  23.315   4.637  0.00  0.00    -0.237 NA
ATOM     16  N6  <1> d   1      19.470  23.632   3.274  0.00  0.00    -0.198 NA
ATOM     17  C16 <1> d   1      22.125  22.465   5.343  0.00  0.00     0.147 A 
ATOM     18  C19 <1> d   1      18.459  23.135   2.641  0.00  0.00     0.182 A 
ATOM     19  N5  <1> d   1      18.191  21.800   2.613  0.00  0.00    -0.296 N 
ATOM     20  H16 <1> d   1      17.364  21.455   2.145  0.00  0.00     0.171 HD
ATOM     21  O6  <1> d   1      18.629  19.665   3.252  0.00  0.00    -0.265 OA
BRANCH  18  22
ATOM     22  N7  <1> d   1      17.610  23.938   1.959  0.00  0.00    -0.272 NA
ATOM     23  H18 <1> d   1      17.737  24.938   2.039  0.00  0.00     0.127 HD
ATOM     24  H19 <1> d   1      16.640  23.648   2.052  0.00  0.00     0.127 HD
ENDBRANCH  18  22
ENDBRANCH   9  10
ENDBRANCH   7   9
ENDBRANCH   2   7
BRANCH   1  25
ATOM     25  C4  <1> d   1      20.905  20.092  12.615  0.00  0.00     0.252 C 
ATOM     26  O2  <1> d   1      19.877  20.739  12.741  0.00  0.00    -0.268 OA
ATOM     27  N   GLU d   1      21.623  19.593  13.694  0.00  0.00    -0.343 N 
ATOM     28  H   GLU d   1      22.507  19.142  13.494  0.00  0.00     0.163 HD
BRANCH  27  29
ATOM     29  CA  GLU d   1      21.325  19.724  15.150  0.00  0.00     0.183 C 
BRANCH  29  30
ATOM     30  CB  GLU d   1      21.154  18.366  15.864  0.00  0.00     0.046 C 
BRANCH  30  31
ATOM     31  CG  GLU d   1      19.876  17.563  15.558  0.00  0.00     0.112 C 
BRANCH  31  32
ATOM     32  CD  GLU d   1      18.655  18.397  15.869  0.00  0.00     0.139 C 
ATOM     33  OE2 GLU d   1      18.032  19.030  15.028  0.00  0.00    -0.650 OA
BRANCH  32  34
ATOM     34  OE1 GLU d   1      18.316  18.406  17.176  0.00  0.00    -0.776 OA
ATOM     35  HE1 GLU d   1      18.497  19.247  17.636  0.00  0.00     0.167 HD
ENDBRANCH  32  34
ENDBRANCH  31  32
ENDBRANCH  30  31
ENDBRANCH  29  30
BRANCH  29  36
ATOM     36  C   GLU d   1      22.496  20.503  15.796  0.00  0.00     0.163 C 
ATOM     37  OXT GLU d   1      22.630  20.796  16.968  0.00  0.00    -0.648 OA
BRANCH  36  38
ATOM     38  O   GLU d   1      23.461  20.858  14.917  0.00  0.00    -0.775 OA
ATOM     39  H   GLU d   1      23.507  21.832  15.037  0.00  0.00     0.167 HD
ENDBRANCH  36  38
ENDBRANCH  29  36
ENDBRANCH  27  29
ENDBRANCH   1  25
TORSDOF 12
ENDMDL
