SMA
  -OEChem-12162215293D

 79 80  0     1  0  0  0  0  0999 V2000
    6.0380  129.9620   81.5380 C   0  0  0  0  0  0  0  0  0  0  0  0
    4.8010  130.0520   82.1210 C   0  0  0  0  0  0  0  0  0  0  0  0
    4.1180  128.8890   82.7330 C   0  0  0  0  0  0  0  0  0  0  0  0
    4.0670  131.3450   82.1550 C   0  0  0  0  0  0  0  0  0  0  0  0
    4.7650  132.4870   81.5290 C   0  0  0  0  0  0  0  0  0  0  0  0
    4.1960  133.8100   81.4470 C   0  0  0  0  0  0  0  0  0  0  0  0
    2.3220  135.2190   81.9200 C   0  0  0  0  0  0  0  0  0  0  0  0
    4.9120  134.8870   80.8380 C   0  0  0  0  0  0  0  0  0  0  0  0
    6.2050  134.6730   80.2990 C   0  0  0  0  0  0  0  0  0  0  0  0
    6.5440  136.0950   78.3740 C   0  0  0  0  0  0  0  0  0  0  0  0
    6.8050  133.3360   80.3620 C   0  0  0  0  0  0  0  0  0  0  0  0
    6.0550  132.2900   80.9670 C   0  0  0  0  0  0  0  0  0  0  0  0
    6.9220  128.7460   81.3670 C   0  0  0  0  0  0  0  0  0  0  0  0
    7.6430  128.2300   82.5930 C   0  0  0  0  0  0  0  0  0  0  0  0
    8.8080  127.3290   82.1840 C   0  0  1  0  0  0  0  0  0  0  0  0
    9.5880  126.7710   83.4120 C   0  0  1  0  0  0  0  0  0  0  0  0
   10.4400  127.8610   84.1420 C   0  0  1  0  0  0  0  0  0  0  0  0
   11.1030  127.3090   85.4330 C   0  0  2  0  0  0  0  0  0  0  0  0
   10.9760  128.2980   86.5070 C   0  0  0  0  0  0  0  0  0  0  0  0
   11.8430  128.4400   87.5090 C   0  0  0  0  0  0  0  0  0  0  0  0
   12.5820  129.6570   87.7600 C   0  0  0  0  0  0  0  0  0  0  0  0
   13.4530  129.7680   88.7900 C   0  0  0  0  0  0  0  0  0  0  0  0
   13.9260  131.0210   89.3610 C   0  0  0  0  0  0  0  0  0  0  0  0
   15.1660  131.4420   89.0630 C   0  0  0  0  0  0  0  0  0  0  0  0
   15.7950  132.6780   89.5530 C   0  0  0  0  0  0  0  0  0  0  0  0
    8.3130  126.1790   81.3310 C   0  0  0  0  0  0  0  0  0  0  0  0
    8.6570  124.8030   84.5020 C   0  0  0  0  0  0  0  0  0  0  0  0
   11.4940  128.4410   83.1900 C   0  0  0  0  0  0  0  0  0  0  0  0
   12.7830  125.6680   85.1680 C   0  0  0  0  0  0  0  0  0  0  0  0
   12.9940  131.7690   90.2560 C   0  0  0  0  0  0  0  0  0  0  0  0
    6.6760  131.0570   80.9720 O   0  0  0  0  0  0  0  0  0  0  0  0
    2.9470  131.4400   82.6740 O   0  0  0  0  0  0  0  0  0  0  0  0
    2.9430  133.9390   81.9840 O   0  0  0  0  0  0  0  0  0  0  0  0
    6.9570  135.6860   79.6960 O   0  0  0  0  0  0  0  0  0  0  0  0
    8.0660  133.1340   79.8350 O   0  0  0  0  0  0  0  0  0  0  0  0
    8.6420  126.2220   84.3620 O   0  0  0  0  0  0  0  0  0  0  0  0
   12.4690  127.0450   85.1550 O   0  0  0  0  0  0  0  0  0  0  0  0
    3.1430  129.2050   83.1340 H   0  0  0  0  0  0  0  0  0  0  0  0
    3.9660  128.1100   81.9710 H   0  0  0  0  0  0  0  0  0  0  0  0
    4.7370  128.4880   83.5490 H   0  0  0  0  0  0  0  0  0  0  0  0
    1.3280  135.1680   82.3880 H   0  0  0  0  0  0  0  0  0  0  0  0
    2.9420  135.9540   82.4550 H   0  0  0  0  0  0  0  0  0  0  0  0
    2.2170  135.5230   80.8680 H   0  0  0  0  0  0  0  0  0  0  0  0
    4.4650  135.8690   80.7880 H   0  0  0  0  0  0  0  0  0  0  0  0
    7.2100  136.8920   78.0110 H   0  0  0  0  0  0  0  0  0  0  0  0
    6.5970  135.2340   77.6910 H   0  0  0  0  0  0  0  0  0  0  0  0
    5.5110  136.4700   78.4130 H   0  0  0  0  0  0  0  0  0  0  0  0
    6.2770  127.9300   81.0080 H   0  0  0  0  0  0  0  0  0  0  0  0
    7.6940  129.0130   80.6310 H   0  0  0  0  0  0  0  0  0  0  0  0
    8.0310  129.0830   83.1700 H   0  0  0  0  0  0  0  0  0  0  0  0
    6.9390  127.6530   83.2100 H   0  0  0  0  0  0  0  0  0  0  0  0
    9.5030  127.9520   81.6020 H   0  0  0  0  0  0  0  0  0  0  0  0
   10.2790  126.0040   83.0330 H   0  0  0  0  0  0  0  0  0  0  0  0
    9.7580  128.6680   84.4480 H   0  0  0  0  0  0  0  0  0  0  0  0
   10.6090  126.3810   85.7570 H   0  0  0  0  0  0  0  0  0  0  0  0
   10.1210  128.9570   86.4850 H   0  0  0  0  0  0  0  0  0  0  0  0
   12.0020  127.6000   88.1690 H   0  0  0  0  0  0  0  0  0  0  0  0
   12.4350  130.5030   87.1060 H   0  0  0  0  0  0  0  0  0  0  0  0
   13.8280  128.8530   89.2240 H   0  0  0  0  0  0  0  0  0  0  0  0
   15.7530  130.8180   88.4060 H   0  0  0  0  0  0  0  0  0  0  0  0
   16.8120  132.7600   89.1430 H   0  0  0  0  0  0  0  0  0  0  0  0
   15.1990  133.5450   89.2310 H   0  0  0  0  0  0  0  0  0  0  0  0
   15.8430  132.6540   90.6520 H   0  0  0  0  0  0  0  0  0  0  0  0
    9.1630  125.5410   81.0460 H   0  0  0  0  0  0  0  0  0  0  0  0
    7.5850  125.5850   81.9030 H   0  0  0  0  0  0  0  0  0  0  0  0
    7.8320  126.5760   80.4250 H   0  0  0  0  0  0  0  0  0  0  0  0
    7.9040  124.4990   85.2440 H   0  0  0  0  0  0  0  0  0  0  0  0
    8.4260  124.3370   83.5330 H   0  0  0  0  0  0  0  0  0  0  0  0
    9.6530  124.4780   84.8370 H   0  0  0  0  0  0  0  0  0  0  0  0
   12.0840  129.2050   83.7170 H   0  0  0  0  0  0  0  0  0  0  0  0
   12.1600  127.6360   82.8460 H   0  0  0  0  0  0  0  0  0  0  0  0
   10.9930  128.8980   82.3240 H   0  0  0  0  0  0  0  0  0  0  0  0
   13.8520  125.5330   84.9460 H   0  0  0  0  0  0  0  0  0  0  0  0
   12.5590  125.2500   86.1610 H   0  0  0  0  0  0  0  0  0  0  0  0
   12.1820  125.1480   84.4070 H   0  0  0  0  0  0  0  0  0  0  0  0
   13.4830  132.6880   90.6100 H   0  0  0  0  0  0  0  0  0  0  0  0
   12.0820  132.0300   89.6990 H   0  0  0  0  0  0  0  0  0  0  0  0
   12.7300  131.1390   91.1180 H   0  0  0  0  0  0  0  0  0  0  0  0
    8.3160  132.2250   79.9500 H   0  0  0  0  0  0  0  0  0  0  0  0
 10 34  1  0  0  0  0
  9 34  1  0  0  0  0
 11 35  1  0  0  0  0
  9 11  2  0  0  0  0
  8  9  1  0  0  0  0
 11 12  1  0  0  0  0
  6  8  2  0  0  0  0
 12 31  1  0  0  0  0
  5 12  2  0  0  0  0
  1 31  1  0  0  0  0
 15 26  1  0  0  0  0
  1 13  1  0  0  0  0
 13 14  1  0  0  0  0
  5  6  1  0  0  0  0
  6 33  1  0  0  0  0
  4  5  1  0  0  0  0
  1  2  2  0  0  0  0
  7 33  1  0  0  0  0
  2  4  1  0  0  0  0
  2  3  1  0  0  0  0
  4 32  2  0  0  0  0
 14 15  1  0  0  0  0
 15 16  1  0  0  0  0
 17 28  1  0  0  0  0
 16 17  1  0  0  0  0
 16 36  1  0  0  0  0
 17 18  1  0  0  0  0
 27 36  1  0  0  0  0
 29 37  1  0  0  0  0
 18 37  1  0  0  0  0
 18 19  1  0  0  0  0
 19 20  2  3  0  0  0
 20 21  1  0  0  0  0
 21 22  2  0  0  0  0
 22 23  1  0  0  0  0
 23 24  2  0  0  0  0
 24 25  1  0  0  0  0
 23 30  1  0  0  0  0
  3 38  1  0  0  0  0
  3 39  1  0  0  0  0
  3 40  1  0  0  0  0
  7 41  1  0  0  0  0
  7 42  1  0  0  0  0
  7 43  1  0  0  0  0
  8 44  1  0  0  0  0
 10 45  1  0  0  0  0
 10 46  1  0  0  0  0
 10 47  1  0  0  0  0
 13 48  1  0  0  0  0
 13 49  1  0  0  0  0
 14 50  1  0  0  0  0
 14 51  1  0  0  0  0
 15 52  1  0  0  0  0
 16 53  1  0  0  0  0
 17 54  1  0  0  0  0
 18 55  1  0  0  0  0
 19 56  1  0  0  0  0
 20 57  1  0  0  0  0
 21 58  1  0  0  0  0
 22 59  1  0  0  0  0
 24 60  1  0  0  0  0
 25 61  1  0  0  0  0
 25 62  1  0  0  0  0
 25 63  1  0  0  0  0
 26 64  1  0  0  0  0
 26 65  1  0  0  0  0
 26 66  1  0  0  0  0
 27 67  1  0  0  0  0
 27 68  1  0  0  0  0
 27 69  1  0  0  0  0
 28 70  1  0  0  0  0
 28 71  1  0  0  0  0
 28 72  1  0  0  0  0
 29 73  1  0  0  0  0
 29 74  1  0  0  0  0
 29 75  1  0  0  0  0
 30 76  1  0  0  0  0
 30 77  1  0  0  0  0
 30 78  1  0  0  0  0
 35 79  1  0  0  0  0
M  END
> <OPENEYE_ISO_SMILES>
C/C=C(\C)/C=C/C=C[C@@H]([C@@H](C)[C@H]([C@@H](C)CCc1c(c(=O)c2c(cc(c(c2o1)O)OC)OC)C)OC)OC

> <OPENEYE_INCHI>
InChI=1S/C30H42O7/c1-10-18(2)13-11-12-14-22(33-6)21(5)29(36-9)19(3)15-16-23-20(4)27(31)26-24(34-7)17-25(35-8)28(32)30(26)37-23/h10-14,17,19,21-22,29,32H,15-16H2,1-9H3/b13-11+,14-12?,18-10+/t19-,21+,22-,29-/m0/s1

> <OPENEYE_INCHIKEY>
UZHDGDDPOPDJGM-WPPYOTIYSA-N

> <FORMULA>
C30H42O7

$$$$
