MODEL 1
REMARK VINA RESULT:      -4.0      0.000      0.000
REMARK  2 active torsions:
REMARK  status: ('A' for Active; 'I' for Inactive)
REMARK    1  A    between atoms: C_1  and  O_3 
REMARK    2  A    between atoms: C_1  and  C_4 
ROOT
ATOM      1  C   UNL d   1       7.680 -10.757 -27.579  0.00  0.00     0.213 C 
ATOM      2  O   UNL d   1       8.661 -11.238 -27.045  0.00  0.00    -0.644 OA
ENDROOT
BRANCH   1   3
ATOM      3  O   UNL d   1       7.696  -9.561 -28.173  0.00  0.00    -0.771 OA
ATOM      4  H   UNL d   1       6.809  -9.451 -28.571  0.00  0.00     0.168 HD
ENDBRANCH   1   3
BRANCH   1   5
ATOM      5  C   UNL d   1       6.315 -11.457 -27.637  0.00  0.00     0.218 C 
ATOM      6  O   UNL d   1       5.761 -11.682 -28.707  0.00  0.00    -0.286 OA
ATOM      7  C   UNL d   1       5.725 -11.835 -26.311  0.00  0.00     0.103 C 
ENDBRANCH   1   5
TORSDOF 2
ENDMDL
MODEL 2
REMARK VINA RESULT:      -4.0      1.129      2.579
REMARK  2 active torsions:
REMARK  status: ('A' for Active; 'I' for Inactive)
REMARK    1  A    between atoms: C_1  and  O_3 
REMARK    2  A    between atoms: C_1  and  C_4 
ROOT
ATOM      1  C   UNL d   1       6.171 -11.689 -27.644  0.00  0.00     0.213 C 
ATOM      2  O   UNL d   1       5.502 -12.091 -26.711  0.00  0.00    -0.644 OA
ENDROOT
BRANCH   1   3
ATOM      3  O   UNL d   1       5.742 -11.730 -28.909  0.00  0.00    -0.771 OA
ATOM      4  H   UNL d   1       4.988 -11.109 -28.953  0.00  0.00     0.168 HD
ENDBRANCH   1   3
BRANCH   1   5
ATOM      5  C   UNL d   1       7.576 -11.091 -27.488  0.00  0.00     0.218 C 
ATOM      6  O   UNL d   1       7.918 -10.099 -28.121  0.00  0.00    -0.286 OA
ATOM      7  C   UNL d   1       8.478 -11.801 -26.523  0.00  0.00     0.103 C 
ENDBRANCH   1   5
TORSDOF 2
ENDMDL
MODEL 3
REMARK VINA RESULT:      -3.9      3.689      4.334
REMARK  2 active torsions:
REMARK  status: ('A' for Active; 'I' for Inactive)
REMARK    1  A    between atoms: C_1  and  O_3 
REMARK    2  A    between atoms: C_1  and  C_4 
ROOT
ATOM      1  C   UNL d   1       9.352  -9.265 -24.450  0.00  0.00     0.213 C 
ATOM      2  O   UNL d   1      10.043  -9.040 -25.424  0.00  0.00    -0.644 OA
ENDROOT
BRANCH   1   3
ATOM      3  O   UNL d   1       9.206  -8.389 -23.451  0.00  0.00    -0.771 OA
ATOM      4  H   UNL d   1       8.242  -8.283 -23.330  0.00  0.00     0.168 HD
ENDBRANCH   1   3
BRANCH   1   5
ATOM      5  C   UNL d   1       8.568 -10.569 -24.245  0.00  0.00     0.218 C 
ATOM      6  O   UNL d   1       8.100 -10.864 -23.152  0.00  0.00    -0.286 OA
ATOM      7  C   UNL d   1       8.424 -11.433 -25.461  0.00  0.00     0.103 C 
ENDBRANCH   1   5
TORSDOF 2
ENDMDL
MODEL 4
REMARK VINA RESULT:      -3.8      1.365      2.714
REMARK  2 active torsions:
REMARK  status: ('A' for Active; 'I' for Inactive)
REMARK    1  A    between atoms: C_1  and  O_3 
REMARK    2  A    between atoms: C_1  and  C_4 
ROOT
ATOM      1  C   UNL d   1       5.963 -11.381 -27.577  0.00  0.00     0.213 C 
ATOM      2  O   UNL d   1       5.807 -11.816 -28.701  0.00  0.00    -0.644 OA
ENDROOT
BRANCH   1   3
ATOM      3  O   UNL d   1       5.297 -11.857 -26.521  0.00  0.00    -0.771 OA
ATOM      4  H   UNL d   1       4.412 -11.443 -26.556  0.00  0.00     0.168 HD
ENDBRANCH   1   3
BRANCH   1   5
ATOM      5  C   UNL d   1       6.933 -10.243 -27.232  0.00  0.00     0.218 C 
ATOM      6  O   UNL d   1       7.763  -9.847 -28.042  0.00  0.00    -0.286 OA
ATOM      7  C   UNL d   1       6.789  -9.666 -25.856  0.00  0.00     0.103 C 
ENDBRANCH   1   5
TORSDOF 2
ENDMDL
MODEL 5
REMARK VINA RESULT:      -3.8      3.106      4.285
REMARK  2 active torsions:
REMARK  status: ('A' for Active; 'I' for Inactive)
REMARK    1  A    between atoms: C_1  and  O_3 
REMARK    2  A    between atoms: C_1  and  C_4 
ROOT
ATOM      1  C   UNL d   1       8.838 -10.794 -25.337  0.00  0.00     0.213 C 
ATOM      2  O   UNL d   1       8.998 -11.196 -26.473  0.00  0.00    -0.644 OA
ENDROOT
BRANCH   1   3
ATOM      3  O   UNL d   1       8.172 -11.491 -24.412  0.00  0.00    -0.771 OA
ATOM      4  H   UNL d   1       8.857 -11.921 -23.861  0.00  0.00     0.168 HD
ENDBRANCH   1   3
BRANCH   1   5
ATOM      5  C   UNL d   1       9.373  -9.448 -24.828  0.00  0.00     0.218 C 
ATOM      6  O   UNL d   1      10.202  -8.811 -25.466  0.00  0.00    -0.286 OA
ATOM      7  C   UNL d   1       8.814  -8.985 -23.516  0.00  0.00     0.103 C 
ENDBRANCH   1   5
TORSDOF 2
ENDMDL
MODEL 6
REMARK VINA RESULT:      -3.7      3.152      4.255
REMARK  2 active torsions:
REMARK  status: ('A' for Active; 'I' for Inactive)
REMARK    1  A    between atoms: C_1  and  O_3 
REMARK    2  A    between atoms: C_1  and  C_4 
ROOT
ATOM      1  C   UNL d   1       6.246 -11.716 -24.846  0.00  0.00     0.213 C 
ATOM      2  O   UNL d   1       5.654 -10.993 -25.624  0.00  0.00    -0.644 OA
ENDROOT
BRANCH   1   3
ATOM      3  O   UNL d   1       5.690 -12.805 -24.309  0.00  0.00    -0.771 OA
ATOM      4  H   UNL d   1       4.870 -12.963 -24.817  0.00  0.00     0.168 HD
ENDBRANCH   1   3
BRANCH   1   5
ATOM      5  C   UNL d   1       7.692 -11.473 -24.389  0.00  0.00     0.218 C 
ATOM      6  O   UNL d   1       8.015 -11.593 -23.214  0.00  0.00    -0.286 OA
ATOM      7  C   UNL d   1       8.655 -11.084 -25.471  0.00  0.00     0.103 C 
ENDBRANCH   1   5
TORSDOF 2
ENDMDL
MODEL 7
REMARK VINA RESULT:      -3.7      3.094      4.026
REMARK  2 active torsions:
REMARK  status: ('A' for Active; 'I' for Inactive)
REMARK    1  A    between atoms: C_1  and  O_3 
REMARK    2  A    between atoms: C_1  and  C_4 
ROOT
ATOM      1  C   UNL d   1       7.848 -10.991 -24.232  0.00  0.00     0.213 C 
ATOM      2  O   UNL d   1       8.098 -11.672 -23.256  0.00  0.00    -0.644 OA
ENDROOT
BRANCH   1   3
ATOM      3  O   UNL d   1       6.608 -10.606 -24.544  0.00  0.00    -0.771 OA
ATOM      4  H   UNL d   1       6.696  -9.705 -24.916  0.00  0.00     0.168 HD
ENDBRANCH   1   3
BRANCH   1   5
ATOM      5  C   UNL d   1       8.915 -10.493 -25.217  0.00  0.00     0.218 C 
ATOM      6  O   UNL d   1       9.167 -11.108 -26.246  0.00  0.00    -0.286 OA
ATOM      7  C   UNL d   1       9.610  -9.222 -24.829  0.00  0.00     0.103 C 
ENDBRANCH   1   5
TORSDOF 2
ENDMDL
MODEL 8
REMARK VINA RESULT:      -3.7      0.927      2.184
REMARK  2 active torsions:
REMARK  status: ('A' for Active; 'I' for Inactive)
REMARK    1  A    between atoms: C_1  and  O_3 
REMARK    2  A    between atoms: C_1  and  C_4 
ROOT
ATOM      1  C   UNL d   1       7.028 -10.535 -27.728  0.00  0.00     0.213 C 
ATOM      2  O   UNL d   1       5.896 -10.740 -28.119  0.00  0.00    -0.644 OA
ENDROOT
BRANCH   1   3
ATOM      3  O   UNL d   1       7.754  -9.490 -28.134  0.00  0.00    -0.771 OA
ATOM      4  H   UNL d   1       8.464  -9.861 -28.694  0.00  0.00     0.168 HD
ENDBRANCH   1   3
BRANCH   1   5
ATOM      5  C   UNL d   1       7.760 -11.442 -26.728  0.00  0.00     0.218 C 
ATOM      6  O   UNL d   1       8.983 -11.509 -26.707  0.00  0.00    -0.286 OA
ATOM      7  C   UNL d   1       6.879 -12.224 -25.800  0.00  0.00     0.103 C 
ENDBRANCH   1   5
TORSDOF 2
ENDMDL
MODEL 9
REMARK VINA RESULT:      -3.7      3.650      4.261
REMARK  2 active torsions:
REMARK  status: ('A' for Active; 'I' for Inactive)
REMARK    1  A    between atoms: C_1  and  O_3 
REMARK    2  A    between atoms: C_1  and  C_4 
ROOT
ATOM      1  C   UNL d   1       7.824 -10.470 -23.389  0.00  0.00     0.213 C 
ATOM      2  O   UNL d   1       7.741 -11.671 -23.226  0.00  0.00    -0.644 OA
ENDROOT
BRANCH   1   3
ATOM      3  O   UNL d   1       8.238  -9.638 -22.429  0.00  0.00    -0.771 OA
ATOM      4  H   UNL d   1       9.215  -9.677 -22.447  0.00  0.00     0.168 HD
ENDBRANCH   1   3
BRANCH   1   5
ATOM      5  C   UNL d   1       7.470  -9.763 -24.706  0.00  0.00     0.218 C 
ATOM      6  O   UNL d   1       8.078 -10.006 -25.742  0.00  0.00    -0.286 OA
ATOM      7  C   UNL d   1       6.346  -8.774 -24.626  0.00  0.00     0.103 C 
ENDBRANCH   1   5
TORSDOF 2
ENDMDL
