@<TRIPOS>MOLECULE
PYR
 10 9 0 0 0
SMALL
GASTEIGER

@<TRIPOS>ATOM
      1 C           0.9507   -0.0683   -0.0630 C.2     1  UNL1        0.3723
      2 O           0.3020   -0.9243   -0.6325 O.2     1  UNL1       -0.2419
      3 O           0.3848    0.9397    0.6071 O.3     1  UNL1       -0.4751
      4 C           2.4863   -0.0367   -0.0416 C.2     1  UNL1        0.2360
      5 O           3.0962    0.8465    0.5478 O.2     1  UNL1       -0.2854
      6 C           3.1649   -1.1492   -0.7837 C.3     1  UNL1        0.0052
      7 H          -0.5802    0.8077    0.5192 H       1  UNL1        0.2955
      8 H           2.8873   -2.1115   -0.3467 H       1  UNL1        0.0311
      9 H           2.8872   -1.1153   -1.8401 H       1  UNL1        0.0311
     10 H           4.2497   -1.0300   -0.7044 H       1  UNL1        0.0311
@<TRIPOS>BOND
     1     1     2    2
     2     1     3    1
     3     1     4    1
     4     3     7    1
     5     4     5    2
     6     4     6    1
     7     6     8    1
     8     6     9    1
     9     6    10    1
