REMARK  2 active torsions:
REMARK  status: ('A' for Active; 'I' for Inactive)
REMARK    1  A    between atoms: C_1  and  O_3 
REMARK    2  A    between atoms: C_1  and  C_4 
ROOT
ATOM      1  C   UNL d   1       0.951  -0.068  -0.063  0.00  0.00     0.213 C 
ATOM      2  O   UNL d   1       0.302  -0.924  -0.632  0.00  0.00    -0.644 OA
ENDROOT
BRANCH   1   3
ATOM      3  O   UNL d   1       0.385   0.940   0.607  0.00  0.00    -0.771 OA
ATOM      4  H   UNL d   1      -0.580   0.808   0.519  0.00  0.00     0.168 HD
ENDBRANCH   1   3
BRANCH   1   5
ATOM      5  C   UNL d   1       2.486  -0.037  -0.042  0.00  0.00     0.218 C 
ATOM      6  O   UNL d   1       3.096   0.847   0.548  0.00  0.00    -0.286 OA
ATOM      7  C   UNL d   1       3.165  -1.149  -0.784  0.00  0.00     0.103 C 
ENDBRANCH   1   5
TORSDOF 2
