MODEL 1
REMARK VINA RESULT:      -4.0      0.000      0.000
REMARK  2 active torsions:
REMARK  status: ('A' for Active; 'I' for Inactive)
REMARK    1  A    between atoms: C_1  and  O_3 
REMARK    2  A    between atoms: C_1  and  C_4 
ROOT
ATOM      1  C   UNL d   1       7.682 -10.748 -27.577  0.00  0.00     0.213 C 
ATOM      2  O   UNL d   1       8.672 -11.223 -27.057  0.00  0.00    -0.644 OA
ENDROOT
BRANCH   1   3
ATOM      3  O   UNL d   1       7.680  -9.546 -28.161  0.00  0.00    -0.771 OA
ATOM      4  H   UNL d   1       8.564  -9.167 -27.983  0.00  0.00     0.168 HD
ENDBRANCH   1   3
BRANCH   1   5
ATOM      5  C   UNL d   1       6.315 -11.455 -27.635  0.00  0.00     0.218 C 
ATOM      6  O   UNL d   1       5.767 -11.682 -28.705  0.00  0.00    -0.286 OA
ATOM      7  C   UNL d   1       5.717 -11.837 -26.313  0.00  0.00     0.103 C 
ENDBRANCH   1   5
TORSDOF 2
ENDMDL
MODEL 2
REMARK VINA RESULT:      -4.0      1.143      2.590
REMARK  2 active torsions:
REMARK  status: ('A' for Active; 'I' for Inactive)
REMARK    1  A    between atoms: C_1  and  O_3 
REMARK    2  A    between atoms: C_1  and  C_4 
ROOT
ATOM      1  C   UNL d   1       6.160 -11.691 -27.635  0.00  0.00     0.213 C 
ATOM      2  O   UNL d   1       5.478 -12.068 -26.703  0.00  0.00    -0.644 OA
ENDROOT
BRANCH   1   3
ATOM      3  O   UNL d   1       5.740 -11.741 -28.902  0.00  0.00    -0.771 OA
ATOM      4  H   UNL d   1       4.764 -11.763 -28.854  0.00  0.00     0.168 HD
ENDBRANCH   1   3
BRANCH   1   5
ATOM      5  C   UNL d   1       7.580 -11.114 -27.485  0.00  0.00     0.218 C 
ATOM      6  O   UNL d   1       7.930 -10.128 -28.119  0.00  0.00    -0.286 OA
ATOM      7  C   UNL d   1       8.483 -11.831 -26.525  0.00  0.00     0.103 C 
ENDBRANCH   1   5
TORSDOF 2
ENDMDL
MODEL 3
REMARK VINA RESULT:      -3.9      1.521      2.680
REMARK  2 active torsions:
REMARK  status: ('A' for Active; 'I' for Inactive)
REMARK    1  A    between atoms: C_1  and  O_3 
REMARK    2  A    between atoms: C_1  and  C_4 
ROOT
ATOM      1  C   UNL d   1       5.858 -11.288 -27.460  0.00  0.00     0.213 C 
ATOM      2  O   UNL d   1       5.299 -11.803 -26.512  0.00  0.00    -0.644 OA
ENDROOT
BRANCH   1   3
ATOM      3  O   UNL d   1       5.803 -11.797 -28.694  0.00  0.00    -0.771 OA
ATOM      4  H   UNL d   1       4.966 -12.303 -28.731  0.00  0.00     0.168 HD
ENDBRANCH   1   3
BRANCH   1   5
ATOM      5  C   UNL d   1       6.695  -9.998 -27.370  0.00  0.00     0.218 C 
ATOM      6  O   UNL d   1       7.726  -9.869 -28.016  0.00  0.00    -0.286 OA
ATOM      7  C   UNL d   1       6.167  -8.935 -26.453  0.00  0.00     0.103 C 
ENDBRANCH   1   5
TORSDOF 2
ENDMDL
MODEL 4
REMARK VINA RESULT:      -3.9      1.559      2.192
REMARK  2 active torsions:
REMARK  status: ('A' for Active; 'I' for Inactive)
REMARK    1  A    between atoms: C_1  and  O_3 
REMARK    2  A    between atoms: C_1  and  C_4 
ROOT
ATOM      1  C   UNL d   1       6.626 -11.553 -27.942  0.00  0.00     0.213 C 
ATOM      2  O   UNL d   1       5.836 -11.856 -28.814  0.00  0.00    -0.644 OA
ENDROOT
BRANCH   1   3
ATOM      3  O   UNL d   1       7.765 -10.902 -28.195  0.00  0.00    -0.771 OA
ATOM      4  H   UNL d   1       8.425 -11.280 -27.580  0.00  0.00     0.168 HD
ENDBRANCH   1   3
BRANCH   1   5
ATOM      5  C   UNL d   1       6.425 -11.874 -26.449  0.00  0.00     0.218 C 
ATOM      6  O   UNL d   1       5.325 -12.185 -26.013  0.00  0.00    -0.286 OA
ATOM      7  C   UNL d   1       7.649 -11.780 -25.587  0.00  0.00     0.103 C 
ENDBRANCH   1   5
TORSDOF 2
ENDMDL
MODEL 5
REMARK VINA RESULT:      -3.8      3.005      4.162
REMARK  2 active torsions:
REMARK  status: ('A' for Active; 'I' for Inactive)
REMARK    1  A    between atoms: C_1  and  O_3 
REMARK    2  A    between atoms: C_1  and  C_4 
ROOT
ATOM      1  C   UNL d   1       8.598 -10.624 -25.507  0.00  0.00     0.213 C 
ATOM      2  O   UNL d   1       7.453 -10.940 -25.253  0.00  0.00    -0.644 OA
ENDROOT
BRANCH   1   3
ATOM      3  O   UNL d   1       9.356 -11.297 -26.378  0.00  0.00    -0.771 OA
ATOM      4  H   UNL d   1       9.800 -10.615 -26.920  0.00  0.00     0.168 HD
ENDBRANCH   1   3
BRANCH   1   5
ATOM      5  C   UNL d   1       9.322  -9.423 -24.870  0.00  0.00     0.218 C 
ATOM      6  O   UNL d   1      10.233  -8.853 -25.455  0.00  0.00    -0.286 OA
ATOM      7  C   UNL d   1       8.839  -9.010 -23.511  0.00  0.00     0.103 C 
ENDBRANCH   1   5
TORSDOF 2
ENDMDL
MODEL 6
REMARK VINA RESULT:      -3.8      2.680      3.691
REMARK  2 active torsions:
REMARK  status: ('A' for Active; 'I' for Inactive)
REMARK    1  A    between atoms: C_1  and  O_3 
REMARK    2  A    between atoms: C_1  and  C_4 
ROOT
ATOM      1  C   UNL d   1       5.996 -12.205 -25.347  0.00  0.00     0.213 C 
ATOM      2  O   UNL d   1       5.252 -12.147 -26.305  0.00  0.00    -0.644 OA
ENDROOT
BRANCH   1   3
ATOM      3  O   UNL d   1       5.659 -12.816 -24.207  0.00  0.00    -0.771 OA
ATOM      4  H   UNL d   1       6.505 -13.057 -23.779  0.00  0.00     0.168 HD
ENDBRANCH   1   3
BRANCH   1   5
ATOM      5  C   UNL d   1       7.409 -11.591 -25.315  0.00  0.00     0.218 C 
ATOM      6  O   UNL d   1       7.970 -11.248 -26.346  0.00  0.00    -0.286 OA
ATOM      7  C   UNL d   1       8.032 -11.449 -23.958  0.00  0.00     0.103 C 
ENDBRANCH   1   5
TORSDOF 2
ENDMDL
MODEL 7
REMARK VINA RESULT:      -3.8      3.443      4.243
REMARK  2 active torsions:
REMARK  status: ('A' for Active; 'I' for Inactive)
REMARK    1  A    between atoms: C_1  and  O_3 
REMARK    2  A    between atoms: C_1  and  C_4 
ROOT
ATOM      1  C   UNL d   1       9.298  -9.687 -25.089  0.00  0.00     0.213 C 
ATOM      2  O   UNL d   1      10.188  -8.875 -25.246  0.00  0.00    -0.644 OA
ENDROOT
BRANCH   1   3
ATOM      3  O   UNL d   1       9.154 -10.761 -25.872  0.00  0.00    -0.771 OA
ATOM      4  H   UNL d   1       9.622 -11.485 -25.411  0.00  0.00     0.168 HD
ENDBRANCH   1   3
BRANCH   1   5
ATOM      5  C   UNL d   1       8.230  -9.592 -23.983  0.00  0.00     0.218 C 
ATOM      6  O   UNL d   1       8.462  -9.982 -22.847  0.00  0.00    -0.286 OA
ATOM      7  C   UNL d   1       6.914  -8.999 -24.391  0.00  0.00     0.103 C 
ENDBRANCH   1   5
TORSDOF 2
ENDMDL
MODEL 8
REMARK VINA RESULT:      -3.8      1.071      2.297
REMARK  2 active torsions:
REMARK  status: ('A' for Active; 'I' for Inactive)
REMARK    1  A    between atoms: C_1  and  O_3 
REMARK    2  A    between atoms: C_1  and  C_4 
ROOT
ATOM      1  C   UNL d   1       7.426 -10.864 -27.819  0.00  0.00     0.213 C 
ATOM      2  O   UNL d   1       6.565 -11.448 -28.448  0.00  0.00    -0.644 OA
ENDROOT
BRANCH   1   3
ATOM      3  O   UNL d   1       7.823  -9.624 -28.121  0.00  0.00    -0.771 OA
ATOM      4  H   UNL d   1       8.692  -9.515 -27.684  0.00  0.00     0.168 HD
ENDBRANCH   1   3
BRANCH   1   5
ATOM      5  C   UNL d   1       8.164 -11.464 -26.608  0.00  0.00     0.218 C 
ATOM      6  O   UNL d   1       9.366 -11.686 -26.649  0.00  0.00    -0.286 OA
ATOM      7  C   UNL d   1       7.320 -11.749 -25.401  0.00  0.00     0.103 C 
ENDBRANCH   1   5
TORSDOF 2
ENDMDL
MODEL 9
REMARK VINA RESULT:      -3.7      3.122      4.045
REMARK  2 active torsions:
REMARK  status: ('A' for Active; 'I' for Inactive)
REMARK    1  A    between atoms: C_1  and  O_3 
REMARK    2  A    between atoms: C_1  and  C_4 
ROOT
ATOM      1  C   UNL d   1       7.808 -10.950 -24.190  0.00  0.00     0.213 C 
ATOM      2  O   UNL d   1       8.042 -11.667 -23.237  0.00  0.00    -0.644 OA
ENDROOT
BRANCH   1   3
ATOM      3  O   UNL d   1       6.579 -10.512 -24.478  0.00  0.00    -0.771 OA
ATOM      4  H   UNL d   1       6.050 -11.315 -24.656  0.00  0.00     0.168 HD
ENDBRANCH   1   3
BRANCH   1   5
ATOM      5  C   UNL d   1       8.880 -10.455 -25.179  0.00  0.00     0.218 C 
ATOM      6  O   UNL d   1       9.104 -11.059 -26.220  0.00  0.00    -0.286 OA
ATOM      7  C   UNL d   1       9.612  -9.207 -24.784  0.00  0.00     0.103 C 
ENDBRANCH   1   5
TORSDOF 2
ENDMDL
