REMARK  2 active torsions:
REMARK  status: ('A' for Active; 'I' for Inactive)
REMARK    1  A    between atoms: C_1  and  O_3 
REMARK    2  A    between atoms: C_1  and  C_4 
ROOT
ATOM      1  C   UNL d   1       0.919   0.058   0.054  0.00  0.00     0.213 C 
ATOM      2  O   UNL d   1       0.261   0.927  -0.483  0.00  0.00    -0.644 OA
ENDROOT
BRANCH   1   3
ATOM      3  O   UNL d   1       0.364  -0.976   0.693  0.00  0.00    -0.771 OA
ATOM      4  H   UNL d   1      -0.602  -0.846   0.612  0.00  0.00     0.168 HD
ENDBRANCH   1   3
BRANCH   1   5
ATOM      5  C   UNL d   1       2.459   0.030   0.071  0.00  0.00     0.218 C 
ATOM      6  O   UNL d   1       3.067  -0.874   0.628  0.00  0.00    -0.286 OA
ATOM      7  C   UNL d   1       3.144   1.166  -0.629  0.00  0.00     0.103 C 
ENDBRANCH   1   5
TORSDOF 2
