@<TRIPOS>MOLECULE
PYR
 10 9 0 0 0
SMALL
GASTEIGER

@<TRIPOS>ATOM
      1 C           0.9194    0.0583    0.0536 C.2     1  UNL1        0.3723
      2 O           0.2612    0.9269   -0.4830 O.2     1  UNL1       -0.2419
      3 O           0.3645   -0.9755    0.6926 O.3     1  UNL1       -0.4751
      4 C           2.4586    0.0303    0.0709 C.2     1  UNL1        0.2360
      5 O           3.0669   -0.8744    0.6283 O.2     1  UNL1       -0.2854
      6 C           3.1439    1.1663   -0.6289 C.3     1  UNL1        0.0052
      7 H          -0.6022   -0.8456    0.6123 H       1  UNL1        0.2955
      8 H           2.8751    1.1731   -1.6880 H       1  UNL1        0.0311
      9 H           2.8751    2.1152   -0.1586 H       1  UNL1        0.0311
     10 H           4.2269    1.0345   -0.5477 H       1  UNL1        0.0311
@<TRIPOS>BOND
     1     1     2    2
     2     1     3    1
     3     1     4    1
     4     3     7    1
     5     4     5    2
     6     4     6    1
     7     6     8    1
     8     6     9    1
     9     6    10    1
